<?xml version="1.0" encoding="UTF-8"?>
<!-- generated on 2020-06-07 19:41:33.659095 by randomTrips.py UNKNOWN
  options: -n map.net.xml -e 198 -l <doubleminus>trip-attributes=departLane="best" departSpeed="max" departPos="random_free" -o trip.trips.xml
-->
<routes xmlns:xsi="http://www.w3.org/2001/XMLSchema-instance" xsi:noNamespaceSchemaLocation="http://sumo.dlr.de/xsd/routes_file.xsd">
    <trip id="0" depart="0.00" from="70372816#4" to="653737377#1" departLane="best" departSpeed="max" departPos="random_free"/>
    <trip id="1" depart="1.00" from="-319492699" to="156236298" departLane="best" departSpeed="max" departPos="random_free"/>
    <trip id="2" depart="2.00" from="319477708" to="-319492676" departLane="best" departSpeed="max" departPos="random_free"/>
    <trip id="3" depart="3.00" from="319492690" to="156236980" departLane="best" departSpeed="max" departPos="random_free"/>
    <trip id="4" depart="4.00" from="-156235942#2" to="319492699" departLane="best" departSpeed="max" departPos="random_free"/>
    <trip id="5" depart="5.00" from="475190702#0" to="-156236551#0" departLane="best" departSpeed="max" departPos="random_free"/>
    <trip id="6" depart="6.00" from="-156236288" to="726057965" departLane="best" departSpeed="max" departPos="random_free"/>
    <trip id="7" depart="7.00" from="687425623#1" to="319492701#11" departLane="best" departSpeed="max" departPos="random_free"/>
    <trip id="8" depart="8.00" from="475190702#2" to="-319492692#3" departLane="best" departSpeed="max" departPos="random_free"/>
    <trip id="9" depart="9.00" from="-156236273#1" to="156236258" departLane="best" departSpeed="max" departPos="random_free"/>
    <trip id="10" depart="10.00" from="156236980" to="156236332" departLane="best" departSpeed="max" departPos="random_free"/>
    <trip id="11" depart="11.00" from="156236551#0" to="726057965" departLane="best" departSpeed="max" departPos="random_free"/>
    <trip id="12" depart="12.00" from="319492667" to="24884606#4" departLane="best" departSpeed="max" departPos="random_free"/>
    <trip id="13" depart="13.00" from="319492676" to="-156236802#1" departLane="best" departSpeed="max" departPos="random_free"/>
    <trip id="14" depart="14.00" from="-653737377#1" to="-156236574" departLane="best" departSpeed="max" departPos="random_free"/>
    <trip id="15" depart="15.00" from="156236980" to="24884606#1" departLane="best" departSpeed="max" departPos="random_free"/>
    <trip id="16" depart="16.00" from="-156236962" to="-726057965" departLane="best" departSpeed="max" departPos="random_free"/>
    <trip id="17" depart="17.00" from="-449625225" to="-319645334#1" departLane="best" departSpeed="max" departPos="random_free"/>
    <trip id="18" depart="18.00" from="319492699" to="-319492692#3" departLane="best" departSpeed="max" departPos="random_free"/>
    <trip id="19" depart="19.00" from="156236250#4" to="319492699" departLane="best" departSpeed="max" departPos="random_free"/>
    <trip id="20" depart="20.00" from="-156236845" to="-156236250#7" departLane="best" departSpeed="max" departPos="random_free"/>
    <trip id="21" depart="21.00" from="-156236332" to="156235977" departLane="best" departSpeed="max" departPos="random_free"/>
    <trip id="22" depart="22.00" from="-319492694" to="-156236250#4" departLane="best" departSpeed="max" departPos="random_free"/>
    <trip id="23" depart="23.00" from="156235942#0" to="-319492673#0" departLane="best" departSpeed="max" departPos="random_free"/>
    <trip id="24" depart="24.00" from="24884606#4" to="687601992" departLane="best" departSpeed="max" departPos="random_free"/>
    <trip id="25" depart="25.00" from="319492692#0" to="156236298" departLane="best" departSpeed="max" departPos="random_free"/>
    <trip id="26" depart="26.00" from="471329626" to="448478732#2" departLane="best" departSpeed="max" departPos="random_free"/>
    <trip id="27" depart="27.00" from="-156236776#1" to="475190702#0" departLane="best" departSpeed="max" departPos="random_free"/>
    <trip id="28" depart="28.00" from="156235977" to="-156235667#3" departLane="best" departSpeed="max" departPos="random_free"/>
    <trip id="29" depart="29.00" from="156236220#0" to="687601992" departLane="best" departSpeed="max" departPos="random_free"/>
    <trip id="30" depart="30.00" from="319492698#1" to="-319492692#0" departLane="best" departSpeed="max" departPos="random_free"/>
    <trip id="31" depart="31.00" from="70372816#4" to="-319492701#4" departLane="best" departSpeed="max" departPos="random_free"/>
    <trip id="32" depart="32.00" from="-653737377#0" to="687425623#2" departLane="best" departSpeed="max" departPos="random_free"/>
    <trip id="33" depart="33.00" from="-687601992" to="-319492673#1" departLane="best" departSpeed="max" departPos="random_free"/>
    <trip id="34" depart="34.00" from="-319492701#4" to="-156236332" departLane="best" departSpeed="max" departPos="random_free"/>
    <trip id="35" depart="35.00" from="156236551#0" to="-319492670" departLane="best" departSpeed="max" departPos="random_free"/>
    <trip id="36" depart="36.00" from="475190702#0" to="-319492673#1" departLane="best" departSpeed="max" departPos="random_free"/>
    <trip id="37" depart="37.00" from="70372816#2" to="156235802" departLane="best" departSpeed="max" departPos="random_free"/>
    <trip id="38" depart="38.00" from="319492701#4" to="-156236250#9" departLane="best" departSpeed="max" departPos="random_free"/>
    <trip id="39" depart="39.00" from="-319492701#4" to="156236634#2" departLane="best" departSpeed="max" departPos="random_free"/>
    <trip id="40" depart="40.00" from="319492698#0" to="156236288" departLane="best" departSpeed="max" departPos="random_free"/>
    <trip id="41" depart="41.00" from="156235667#4" to="-583863704" departLane="best" departSpeed="max" departPos="random_free"/>
    <trip id="42" depart="42.00" from="-319492684" to="319492701#3" departLane="best" departSpeed="max" departPos="random_free"/>
    <trip id="43" depart="43.00" from="319492689" to="156236250#4" departLane="best" departSpeed="max" departPos="random_free"/>
    <trip id="44" depart="44.00" from="475190702#0" to="156236634#10" departLane="best" departSpeed="max" departPos="random_free"/>
    <trip id="45" depart="45.00" from="449625225" to="-156235942#4" departLane="best" departSpeed="max" departPos="random_free"/>
    <trip id="46" depart="46.00" from="653737377#0" to="156236962" departLane="best" departSpeed="max" departPos="random_free"/>
    <trip id="47" depart="47.00" from="319492699" to="156236288" departLane="best" departSpeed="max" departPos="random_free"/>
    <trip id="48" depart="48.00" from="319670138" to="-583863704" departLane="best" departSpeed="max" departPos="random_free"/>
    <trip id="49" depart="49.00" from="687425623#3" to="-471329626" departLane="best" departSpeed="max" departPos="random_free"/>
    <trip id="50" depart="50.00" from="156236288" to="-653737377#1" departLane="best" departSpeed="max" departPos="random_free"/>
    <trip id="51" depart="51.00" from="319492689" to="156236288" departLane="best" departSpeed="max" departPos="random_free"/>
    <trip id="52" depart="52.00" from="319645334#0" to="-319492701#11" departLane="best" departSpeed="max" departPos="random_free"/>
    <trip id="53" depart="53.00" from="448478732#4" to="24884606#3" departLane="best" departSpeed="max" departPos="random_free"/>
    <trip id="54" depart="54.00" from="583863705" to="-319492699" departLane="best" departSpeed="max" departPos="random_free"/>
    <trip id="55" depart="55.00" from="156235667#4" to="319492699" departLane="best" departSpeed="max" departPos="random_free"/>
    <trip id="56" depart="56.00" from="-156235802" to="-156236776#9" departLane="best" departSpeed="max" departPos="random_free"/>
    <trip id="57" depart="57.00" from="-156236288" to="-687601999" departLane="best" departSpeed="max" departPos="random_free"/>
    <trip id="58" depart="58.00" from="156236802#0" to="319492684" departLane="best" departSpeed="max" departPos="random_free"/>
    <trip id="59" depart="59.00" from="448478732#1" to="-319492701#4" departLane="best" departSpeed="max" departPos="random_free"/>
    <trip id="60" depart="60.00" from="319492681" to="319492670" departLane="best" departSpeed="max" departPos="random_free"/>
    <trip id="61" depart="61.00" from="-156236634#9" to="-156236551#0" departLane="best" departSpeed="max" departPos="random_free"/>
    <trip id="62" depart="62.00" from="-319633174" to="-156236148#1" departLane="best" departSpeed="max" departPos="random_free"/>
    <trip id="63" depart="63.00" from="448478732#2" to="319492701#4" departLane="best" departSpeed="max" departPos="random_free"/>
    <trip id="64" depart="64.00" from="-319492669" to="449625225" departLane="best" departSpeed="max" departPos="random_free"/>
    <trip id="65" depart="65.00" from="-156236551#0" to="-156236551#0" departLane="best" departSpeed="max" departPos="random_free"/>
    <trip id="66" depart="66.00" from="-687601992" to="-319492701#4" departLane="best" departSpeed="max" departPos="random_free"/>
    <trip id="67" depart="67.00" from="-156236962" to="24884606#3" departLane="best" departSpeed="max" departPos="random_free"/>
    <trip id="68" depart="68.00" from="319492701#8" to="-583863704" departLane="best" departSpeed="max" departPos="random_free"/>
    <trip id="69" depart="69.00" from="-156236634#2" to="319492666" departLane="best" departSpeed="max" departPos="random_free"/>
    <trip id="70" depart="70.00" from="156236332" to="-156236776#1" departLane="best" departSpeed="max" departPos="random_free"/>
    <trip id="71" depart="71.00" from="156235977" to="-156236298" departLane="best" departSpeed="max" departPos="random_free"/>
    <trip id="72" depart="72.00" from="319492692#0" to="-156236802#0" departLane="best" departSpeed="max" departPos="random_free"/>
    <trip id="73" depart="73.00" from="156236288" to="687425623#3" departLane="best" departSpeed="max" departPos="random_free"/>
    <trip id="74" depart="74.00" from="448478732#2" to="156236288" departLane="best" departSpeed="max" departPos="random_free"/>
    <trip id="75" depart="75.00" from="-319492701#0" to="156236845" departLane="best" departSpeed="max" departPos="random_free"/>
    <trip id="76" depart="76.00" from="-319463662" to="-319492699" departLane="best" departSpeed="max" departPos="random_free"/>
    <trip id="77" depart="77.00" from="-156236634#2" to="319492687" departLane="best" departSpeed="max" departPos="random_free"/>
    <trip id="78" depart="78.00" from="475190702#0" to="156236980" departLane="best" departSpeed="max" departPos="random_free"/>
    <trip id="79" depart="79.00" from="-156236258" to="319492694" departLane="best" departSpeed="max" departPos="random_free"/>
    <trip id="80" depart="80.00" from="762803706" to="156236980" departLane="best" departSpeed="max" departPos="random_free"/>
    <trip id="81" depart="81.00" from="-156236776#1" to="726057965" departLane="best" departSpeed="max" departPos="random_free"/>
    <trip id="82" depart="82.00" from="319645334#0" to="-319492673#0" departLane="best" departSpeed="max" departPos="random_free"/>
    <trip id="83" depart="83.00" from="319492681" to="156236551#0" departLane="best" departSpeed="max" departPos="random_free"/>
    <trip id="84" depart="84.00" from="-156235802" to="319492687" departLane="best" departSpeed="max" departPos="random_free"/>
    <trip id="85" depart="85.00" from="-471329626" to="70372816#2" departLane="best" departSpeed="max" departPos="random_free"/>
    <trip id="86" depart="86.00" from="70372816#3" to="-319492701#0" departLane="best" departSpeed="max" departPos="random_free"/>
    <trip id="87" depart="87.00" from="319492673#1" to="448478732#2" departLane="best" departSpeed="max" departPos="random_free"/>
    <trip id="88" depart="88.00" from="319492683" to="-726057965" departLane="best" departSpeed="max" departPos="random_free"/>
    <trip id="89" depart="89.00" from="156236298" to="-156236802#0" departLane="best" departSpeed="max" departPos="random_free"/>
    <trip id="90" depart="90.00" from="156235942#0" to="475190702#1" departLane="best" departSpeed="max" departPos="random_free"/>
    <trip id="91" depart="91.00" from="687425623#1" to="156235802" departLane="best" departSpeed="max" departPos="random_free"/>
    <trip id="92" depart="92.00" from="156236258" to="319492692#2" departLane="best" departSpeed="max" departPos="random_free"/>
    <trip id="93" depart="93.00" from="687425623#3" to="-156236304#3" departLane="best" departSpeed="max" departPos="random_free"/>
    <trip id="94" depart="94.00" from="156235942#1" to="156236634#2" departLane="best" departSpeed="max" departPos="random_free"/>
    <trip id="95" depart="95.00" from="-319645334#0" to="156236258" departLane="best" departSpeed="max" departPos="random_free"/>
    <trip id="96" depart="96.00" from="156236776#5" to="319492669" departLane="best" departSpeed="max" departPos="random_free"/>
    <trip id="97" depart="97.00" from="156236962" to="319492701#4" departLane="best" departSpeed="max" departPos="random_free"/>
    <trip id="98" depart="98.00" from="449625225" to="319492683" departLane="best" departSpeed="max" departPos="random_free"/>
    <trip id="99" depart="99.00" from="-319492673#1" to="-319492683" departLane="best" departSpeed="max" departPos="random_free"/>
    <trip id="100" depart="100.00" from="-319492694" to="24884606#4" departLane="best" departSpeed="max" departPos="random_free"/>
    <trip id="101" depart="101.00" from="70372816#4" to="156236220#2" departLane="best" departSpeed="max" departPos="random_free"/>
    <trip id="102" depart="102.00" from="319492682" to="449625225" departLane="best" departSpeed="max" departPos="random_free"/>
    <trip id="103" depart="103.00" from="319633171" to="-156235942#2" departLane="best" departSpeed="max" departPos="random_free"/>
    <trip id="104" depart="104.00" from="-319492699" to="-319492699" departLane="best" departSpeed="max" departPos="random_free"/>
    <trip id="105" depart="105.00" from="156236332" to="319492683" departLane="best" departSpeed="max" departPos="random_free"/>
    <trip id="106" depart="106.00" from="156236250#3" to="319492701#12" departLane="best" departSpeed="max" departPos="random_free"/>
    <trip id="107" depart="107.00" from="-319492692#1" to="449625225" departLane="best" departSpeed="max" departPos="random_free"/>
    <trip id="108" depart="108.00" from="-583863704" to="156236250#4" departLane="best" departSpeed="max" departPos="random_free"/>
    <trip id="109" depart="109.00" from="-156235802" to="-653737377#1" departLane="best" departSpeed="max" departPos="random_free"/>
    <trip id="110" depart="110.00" from="70372816#2" to="-449625225" departLane="best" departSpeed="max" departPos="random_free"/>
    <trip id="111" depart="111.00" from="-726057965" to="319633174" departLane="best" departSpeed="max" departPos="random_free"/>
    <trip id="112" depart="112.00" from="-653737377#0" to="471329626" departLane="best" departSpeed="max" departPos="random_free"/>
    <trip id="113" depart="113.00" from="319492669" to="156236980" departLane="best" departSpeed="max" departPos="random_free"/>
    <trip id="114" depart="114.00" from="156236304#0" to="-156236866#0" departLane="best" departSpeed="max" departPos="random_free"/>
    <trip id="115" depart="115.00" from="319492690" to="-471329626" departLane="best" departSpeed="max" departPos="random_free"/>
    <trip id="116" depart="116.00" from="319492683" to="687425623#3" departLane="best" departSpeed="max" departPos="random_free"/>
    <trip id="117" depart="117.00" from="-653737377#0" to="156236258" departLane="best" departSpeed="max" departPos="random_free"/>
    <trip id="118" depart="118.00" from="319492694" to="156236288" departLane="best" departSpeed="max" departPos="random_free"/>
    <trip id="119" depart="119.00" from="-319633174" to="-319492676" departLane="best" departSpeed="max" departPos="random_free"/>
    <trip id="120" depart="120.00" from="24884606#4" to="-156236845" departLane="best" departSpeed="max" departPos="random_free"/>
    <trip id="121" depart="121.00" from="726057965" to="-156236776#1" departLane="best" departSpeed="max" departPos="random_free"/>
    <trip id="122" depart="122.00" from="-156236250#4" to="-319645334#0" departLane="best" departSpeed="max" departPos="random_free"/>
    <trip id="123" depart="123.00" from="156236634#10" to="755367130" departLane="best" departSpeed="max" departPos="random_free"/>
    <trip id="124" depart="124.00" from="319492701#12" to="319463662" departLane="best" departSpeed="max" departPos="random_free"/>
    <trip id="125" depart="125.00" from="319492679" to="-653737377#1" departLane="best" departSpeed="max" departPos="random_free"/>
    <trip id="126" depart="126.00" from="319492673#1" to="319492673#0" departLane="best" departSpeed="max" departPos="random_free"/>
    <trip id="127" depart="127.00" from="475190702#2" to="156236304#3" departLane="best" departSpeed="max" departPos="random_free"/>
    <trip id="128" depart="128.00" from="319633171" to="755367130" departLane="best" departSpeed="max" departPos="random_free"/>
    <trip id="129" depart="129.00" from="319492699" to="-653737377#1" departLane="best" departSpeed="max" departPos="random_free"/>
    <trip id="130" depart="130.00" from="-156236288" to="319492698#0" departLane="best" departSpeed="max" departPos="random_free"/>
    <trip id="131" depart="131.00" from="-653737377#1" to="319492701#11" departLane="best" departSpeed="max" departPos="random_free"/>
    <trip id="132" depart="132.00" from="-319645334#0" to="-156236298" departLane="best" departSpeed="max" departPos="random_free"/>
    <trip id="133" depart="133.00" from="156236802#0" to="156236250#4" departLane="best" departSpeed="max" departPos="random_free"/>
    <trip id="134" depart="134.00" from="156236288" to="583863704" departLane="best" departSpeed="max" departPos="random_free"/>
    <trip id="135" depart="135.00" from="319492669" to="319633174" departLane="best" departSpeed="max" departPos="random_free"/>
    <trip id="136" depart="136.00" from="-156236996#0" to="475190703#0" departLane="best" departSpeed="max" departPos="random_free"/>
    <trip id="137" depart="137.00" from="583863705" to="-156236866#1" departLane="best" departSpeed="max" departPos="random_free"/>
    <trip id="138" depart="138.00" from="156236220#2" to="-156236570" departLane="best" departSpeed="max" departPos="random_free"/>
    <trip id="139" depart="139.00" from="-156236288" to="-156236250#1" departLane="best" departSpeed="max" departPos="random_free"/>
    <trip id="140" depart="140.00" from="24884606#4" to="-653737377#1" departLane="best" departSpeed="max" departPos="random_free"/>
    <trip id="141" depart="141.00" from="319633171" to="-319492670" departLane="best" departSpeed="max" departPos="random_free"/>
    <trip id="142" depart="142.00" from="726057965" to="156236250#6" departLane="best" departSpeed="max" departPos="random_free"/>
    <trip id="143" depart="143.00" from="319492681" to="319492690" departLane="best" departSpeed="max" departPos="random_free"/>
    <trip id="144" depart="144.00" from="-319633174" to="156236776#0" departLane="best" departSpeed="max" departPos="random_free"/>
    <trip id="145" depart="145.00" from="-319633174" to="24884606#5" departLane="best" departSpeed="max" departPos="random_free"/>
    <trip id="146" depart="146.00" from="156236250#8" to="-319492699" departLane="best" departSpeed="max" departPos="random_free"/>
    <trip id="147" depart="147.00" from="319492699" to="-583863704" departLane="best" departSpeed="max" departPos="random_free"/>
    <trip id="148" depart="148.00" from="-319492670" to="-319492694" departLane="best" departSpeed="max" departPos="random_free"/>
    <trip id="149" depart="149.00" from="-319492683" to="319492701#12" departLane="best" departSpeed="max" departPos="random_free"/>
    <trip id="150" depart="150.00" from="156235977" to="319492679" departLane="best" departSpeed="max" departPos="random_free"/>
    <trip id="151" depart="151.00" from="156236288" to="-156236298" departLane="best" departSpeed="max" departPos="random_free"/>
    <trip id="152" depart="152.00" from="156236802#1" to="-156235942#1" departLane="best" departSpeed="max" departPos="random_free"/>
    <trip id="153" depart="153.00" from="319633179" to="156235802" departLane="best" departSpeed="max" departPos="random_free"/>
    <trip id="154" depart="154.00" from="-319492692#0" to="156236250#9" departLane="best" departSpeed="max" departPos="random_free"/>
    <trip id="155" depart="155.00" from="653737377#0" to="156236332" departLane="best" departSpeed="max" departPos="random_free"/>
    <trip id="156" depart="156.00" from="-156236776#5" to="156236332" departLane="best" departSpeed="max" departPos="random_free"/>
    <trip id="157" depart="157.00" from="-156237037#0" to="-156236250#9" departLane="best" departSpeed="max" departPos="random_free"/>
    <trip id="158" depart="158.00" from="156235667#2" to="475190702#0" departLane="best" departSpeed="max" departPos="random_free"/>
    <trip id="159" depart="159.00" from="475190702#0" to="319492689" departLane="best" departSpeed="max" departPos="random_free"/>
    <trip id="160" depart="160.00" from="-653737377#1" to="156235942#4" departLane="best" departSpeed="max" departPos="random_free"/>
    <trip id="161" depart="161.00" from="319492692#1" to="319645334#0" departLane="best" departSpeed="max" departPos="random_free"/>
    <trip id="162" depart="162.00" from="-156235802" to="-156236551#0" departLane="best" departSpeed="max" departPos="random_free"/>
    <trip id="163" depart="163.00" from="-319492683" to="-319492689" departLane="best" departSpeed="max" departPos="random_free"/>
    <trip id="164" depart="164.00" from="475190703#0" to="319492698#0" departLane="best" departSpeed="max" departPos="random_free"/>
    <trip id="165" depart="165.00" from="319492692#3" to="319492701#4" departLane="best" departSpeed="max" departPos="random_free"/>
    <trip id="166" depart="166.00" from="156235667#0" to="70372816#4" departLane="best" departSpeed="max" departPos="random_free"/>
    <trip id="167" depart="167.00" from="-319463662" to="-156236304#5" departLane="best" departSpeed="max" departPos="random_free"/>
    <trip id="168" depart="168.00" from="448478732#7" to="156236866#0" departLane="best" departSpeed="max" departPos="random_free"/>
    <trip id="169" depart="169.00" from="156236273#1" to="156236332" departLane="best" departSpeed="max" departPos="random_free"/>
    <trip id="170" depart="170.00" from="-156236802#0" to="319492673#1" departLane="best" departSpeed="max" departPos="random_free"/>
    <trip id="171" depart="171.00" from="-156235857" to="156236634#1" departLane="best" departSpeed="max" departPos="random_free"/>
    <trip id="172" depart="172.00" from="319492692#1" to="653737377#1" departLane="best" departSpeed="max" departPos="random_free"/>
    <trip id="173" depart="173.00" from="-319492684" to="156236288" departLane="best" departSpeed="max" departPos="random_free"/>
    <trip id="174" depart="174.00" from="687601992" to="-156236258" departLane="best" departSpeed="max" departPos="random_free"/>
    <trip id="175" depart="175.00" from="-449625225" to="156235802" departLane="best" departSpeed="max" departPos="random_free"/>
    <trip id="176" depart="176.00" from="-319492692#0" to="319492701#4" departLane="best" departSpeed="max" departPos="random_free"/>
    <trip id="177" depart="177.00" from="-319645334#0" to="687425623#0" departLane="best" departSpeed="max" departPos="random_free"/>
    <trip id="178" depart="178.00" from="-319645334#0" to="156236288" departLane="best" departSpeed="max" departPos="random_free"/>
    <trip id="179" depart="179.00" from="156236258" to="156236980" departLane="best" departSpeed="max" departPos="random_free"/>
    <trip id="180" depart="180.00" from="156236776#9" to="583863705" departLane="best" departSpeed="max" departPos="random_free"/>
    <trip id="181" depart="181.00" from="156235942#2" to="319492687" departLane="best" departSpeed="max" departPos="random_free"/>
    <trip id="182" depart="182.00" from="319633174" to="475190702#2" departLane="best" departSpeed="max" departPos="random_free"/>
    <trip id="183" depart="183.00" from="-156235977" to="475190702#2" departLane="best" departSpeed="max" departPos="random_free"/>
    <trip id="184" depart="184.00" from="-583863704" to="-319492692#3" departLane="best" departSpeed="max" departPos="random_free"/>
    <trip id="185" depart="185.00" from="156236776#7" to="475190702#0" departLane="best" departSpeed="max" departPos="random_free"/>
    <trip id="186" depart="186.00" from="449625225" to="-319492692#0" departLane="best" departSpeed="max" departPos="random_free"/>
    <trip id="187" depart="187.00" from="-319633179" to="-319492701#12" departLane="best" departSpeed="max" departPos="random_free"/>
    <trip id="188" depart="188.00" from="-319492692#0" to="-319492699" departLane="best" departSpeed="max" departPos="random_free"/>
    <trip id="189" depart="189.00" from="475190703#0" to="319492698#1" departLane="best" departSpeed="max" departPos="random_free"/>
    <trip id="190" depart="190.00" from="-156236250#4" to="319492699" departLane="best" departSpeed="max" departPos="random_free"/>
    <trip id="191" depart="191.00" from="-156236802#1" to="475190702#3" departLane="best" departSpeed="max" departPos="random_free"/>
    <trip id="192" depart="192.00" from="156236776#7" to="-156236258" departLane="best" departSpeed="max" departPos="random_free"/>
    <trip id="193" depart="193.00" from="475190702#0" to="687425623#1" departLane="best" departSpeed="max" departPos="random_free"/>
    <trip id="194" depart="194.00" from="156236250#8" to="156235802" departLane="best" departSpeed="max" departPos="random_free"/>
    <trip id="195" depart="195.00" from="-156236802#1" to="156236866#0" departLane="best" departSpeed="max" departPos="random_free"/>
    <trip id="196" depart="196.00" from="-156236802#1" to="-319492692#1" departLane="best" departSpeed="max" departPos="random_free"/>
    <trip id="197" depart="197.00" from="-156236634#4" to="156236776#9" departLane="best" departSpeed="max" departPos="random_free"/>
</routes>
