<?xml version="1.0" encoding="UTF-8"?>

<!-- generated on Min 22 Des 2019 10:46:15  WIB by Netedit Version 0.32.0
<?xml version="1.0" encoding="UTF-8"?>

<configuration xmlns:xsi="http://www.w3.org/2001/XMLSchema-instance" xsi:noNamespaceSchemaLocation="http://sumo.dlr.de/xsd/netconvertConfiguration.xsd">

    <input>
        <sumo-net-file value="map.net.xml"/>
    </input>

    <output>
        <output-file value="map.net.xml"/>
    </output>

    <processing>
        <no-turnarounds value="true"/>
        <offset.disable-normalization value="true"/>
        <lefthand value="false"/>
        <junctions.corner-detail value="0"/>
        <rectangular-lane-cut value="false"/>
        <walkingareas value="false"/>
    </processing>

    <visualisation>
        <registry-viewport value="true"/>
    </visualisation>

</configuration>
-->

<net version="0.27" xmlns:xsi="http://www.w3.org/2001/XMLSchema-instance" xsi:noNamespaceSchemaLocation="http://sumo.dlr.de/xsd/net_file.xsd">

    <location netOffset="-690928.54,806247.99" convBoundary="61.71,0.00,1066.12,891.14" origBoundary="112.729415,-7.290664,112.740760,-7.277968" projParameter="+proj=utm +zone=49 +ellps=WGS84 +datum=WGS84 +units=m +no_defs"/>

    <type id="highway.bridleway" priority="1" numLanes="1" speed="2.78" allow="pedestrian" oneway="1" width="2.00"/>
    <type id="highway.bus_guideway" priority="1" numLanes="1" speed="8.33" allow="bus" oneway="1"/>
    <type id="highway.cycleway" priority="1" numLanes="1" speed="5.56" allow="bicycle" oneway="0" width="1.00"/>
    <type id="highway.footway" priority="1" numLanes="1" speed="2.78" allow="pedestrian" oneway="1" width="2.00"/>
    <type id="highway.ford" priority="1" numLanes="1" speed="2.78" allow="army" oneway="0"/>
    <type id="highway.living_street" priority="3" numLanes="1" speed="2.78" disallow="tram rail_urban rail rail_electric ship" oneway="0"/>
    <type id="highway.motorway" priority="13" numLanes="2" speed="44.44" allow="private emergency authority army vip passenger hov taxi bus coach delivery truck trailer motorcycle evehicle custom1 custom2" oneway="1"/>
    <type id="highway.motorway_link" priority="12" numLanes="1" speed="22.22" allow="private emergency authority army vip passenger hov taxi bus coach delivery truck trailer motorcycle evehicle custom1 custom2" oneway="1"/>
    <type id="highway.path" priority="1" numLanes="1" speed="2.78" allow="bicycle pedestrian" oneway="1" width="2.00"/>
    <type id="highway.pedestrian" priority="1" numLanes="1" speed="2.78" allow="pedestrian" oneway="1" width="2.00"/>
    <type id="highway.primary" priority="9" numLanes="2" speed="27.78" disallow="tram rail_urban rail rail_electric ship" oneway="0"/>
    <type id="highway.primary_link" priority="8" numLanes="1" speed="22.22" disallow="tram rail_urban rail rail_electric ship" oneway="0"/>
    <type id="highway.raceway" priority="14" numLanes="2" speed="83.33" allow="vip" oneway="0"/>
    <type id="highway.residential" priority="4" numLanes="1" speed="13.89" disallow="tram rail_urban rail rail_electric ship" oneway="0"/>
    <type id="highway.secondary" priority="7" numLanes="2" speed="27.78" disallow="tram rail_urban rail rail_electric ship" oneway="0"/>
    <type id="highway.secondary_link" priority="6" numLanes="1" speed="22.22" disallow="tram rail_urban rail rail_electric ship" oneway="0"/>
    <type id="highway.service" priority="2" numLanes="1" speed="5.56" allow="delivery bicycle pedestrian" oneway="0"/>
    <type id="highway.services" priority="1" numLanes="1" speed="8.33" disallow="tram rail_urban rail rail_electric ship" oneway="0"/>
    <type id="highway.stairs" priority="1" numLanes="1" speed="1.39" allow="pedestrian" oneway="1" width="2.00"/>
    <type id="highway.step" priority="1" numLanes="1" speed="1.39" allow="pedestrian" oneway="1" width="2.00"/>
    <type id="highway.steps" priority="1" numLanes="1" speed="1.39" allow="pedestrian" oneway="1" width="2.00"/>
    <type id="highway.tertiary" priority="6" numLanes="1" speed="22.22" disallow="tram rail_urban rail rail_electric ship" oneway="0"/>
    <type id="highway.tertiary_link" priority="5" numLanes="1" speed="22.22" disallow="tram rail_urban rail rail_electric ship" oneway="0"/>
    <type id="highway.track" priority="1" numLanes="1" speed="5.56" disallow="tram rail_urban rail rail_electric ship" oneway="0"/>
    <type id="highway.trunk" priority="11" numLanes="2" speed="27.78" disallow="tram rail_urban rail rail_electric bicycle pedestrian ship" oneway="0"/>
    <type id="highway.trunk_link" priority="10" numLanes="1" speed="22.22" disallow="tram rail_urban rail rail_electric bicycle pedestrian ship" oneway="0"/>
    <type id="highway.unclassified" priority="5" numLanes="1" speed="13.89" disallow="tram rail_urban rail rail_electric ship" oneway="0"/>
    <type id="highway.unsurfaced" priority="1" numLanes="1" speed="8.33" disallow="tram rail_urban rail rail_electric ship" oneway="0"/>
    <type id="railway.light_rail" priority="15" numLanes="1" speed="27.78" allow="rail_urban" oneway="1"/>
    <type id="railway.preserved" priority="15" numLanes="1" speed="27.78" allow="rail" oneway="1"/>
    <type id="railway.rail" priority="15" numLanes="1" speed="83.33" allow="rail rail_electric" oneway="1"/>
    <type id="railway.subway" priority="15" numLanes="1" speed="27.78" allow="rail_urban" oneway="1"/>
    <type id="railway.tram" priority="15" numLanes="1" speed="13.89" allow="tram" oneway="1"/>

    <edge id=":1685220110_0" function="internal">
        <lane id=":1685220110_0_0" index="0" disallow="tram rail_urban rail rail_electric ship" speed="27.78" length="2.69" shape="889.39,887.66 888.12,888.42 887.20,888.45 887.02,888.23"/>
    </edge>
    <edge id=":1685220110_3" function="internal">
        <lane id=":1685220110_3_0" index="0" speed="27.78" length="2.13" shape="887.02,888.23 886.63,887.72 886.41,886.25"/>
    </edge>
    <edge id=":1685220110_1" function="internal">
        <lane id=":1685220110_1_0" index="0" disallow="tram rail_urban rail rail_electric ship" speed="27.78" length="4.98" shape="879.31,886.37 880.62,886.74 881.74,886.62 882.67,885.98 883.42,884.85"/>
    </edge>
    <edge id=":1685220110_2" function="internal">
        <lane id=":1685220110_2_0" index="0" disallow="tram rail_urban rail rail_electric ship" speed="27.78" length="10.23" shape="877.96,889.38 880.65,890.15 882.95,889.89 884.87,888.59 886.41,886.25"/>
    </edge>
    <edge id=":1685220118_0" function="internal">
        <lane id=":1685220118_0_0" index="0" disallow="tram rail_urban rail rail_electric ship" speed="25.00" length="9.95" shape="896.90,871.68 896.14,874.52 896.37,876.70 896.60,878.89 895.82,881.76"/>
        <lane id=":1685220118_0_1" index="1" disallow="tram rail_urban rail rail_electric ship" speed="25.00" length="9.95" shape="896.90,871.68 892.83,880.36"/>
    </edge>
    <edge id=":1685220118_2" function="internal">
        <lane id=":1685220118_2_0" index="0" disallow="tram rail_urban rail rail_electric ship" speed="25.00" length="2.70" shape="896.90,871.68 895.78,872.62 894.55,872.68"/>
    </edge>
    <edge id=":1685220118_3" function="internal">
        <lane id=":1685220118_3_0" index="0" disallow="tram rail_urban rail rail_electric ship" speed="22.22" length="2.41" shape="896.90,871.68 895.63,872.45 894.71,872.47"/>
    </edge>
    <edge id=":1685220118_8" function="internal">
        <lane id=":1685220118_8_0" index="0" speed="25.00" length="8.26" shape="894.55,872.68 893.71,872.73 890.67,871.99 886.67,870.42"/>
    </edge>
    <edge id=":1685220118_9" function="internal">
        <lane id=":1685220118_9_0" index="0" speed="22.22" length="2.41" shape="894.71,872.47 894.13,871.75 893.91,870.28"/>
    </edge>
    <edge id=":1685220118_4" function="internal">
        <lane id=":1685220118_4_0" index="0" disallow="tram rail_urban rail rail_electric ship" speed="27.78" length="5.02" shape="886.86,877.54 887.26,876.22 887.14,875.10 886.50,874.17 885.33,873.43"/>
    </edge>
    <edge id=":1685220118_5" function="internal">
        <lane id=":1685220118_5_0" index="0" disallow="tram rail_urban rail rail_electric ship" speed="27.78" length="10.43" shape="889.84,878.95 890.69,876.21 890.44,873.88 889.10,871.94 886.67,870.42"/>
    </edge>
    <edge id=":1685220118_6" function="internal">
        <lane id=":1685220118_6_0" index="0" disallow="tram rail_urban rail rail_electric ship" speed="25.00" length="9.58" shape="889.84,878.95 893.91,870.28"/>
    </edge>
    <edge id=":1685220118_7" function="internal">
        <lane id=":1685220118_7_0" index="0" disallow="tram rail_urban rail rail_electric ship" speed="27.78" length="2.41" shape="889.84,878.95 891.12,878.18 892.04,878.16"/>
    </edge>
    <edge id=":1685220118_10" function="internal">
        <lane id=":1685220118_10_0" index="0" speed="27.78" length="2.41" shape="892.04,878.16 892.61,878.88 892.83,880.36"/>
    </edge>
    <edge id=":1685220126_0" function="internal">
        <lane id=":1685220126_0_0" index="0" disallow="tram rail_urban rail rail_electric ship" speed="27.78" length="0.41" shape="775.47,846.04 775.65,846.05 775.78,846.07 775.90,846.09 776.08,846.12"/>
        <lane id=":1685220126_0_1" index="1" disallow="tram rail_urban rail rail_electric ship" speed="27.78" length="0.41" shape="775.22,849.33 775.28,849.33 775.32,849.34 775.36,849.35 775.42,849.36"/>
    </edge>
    <edge id=":1685220132_0" function="internal">
        <lane id=":1685220132_0_0" index="0" disallow="tram rail_urban rail rail_electric ship" speed="27.78" length="9.62" shape="789.53,826.04 781.73,820.42"/>
        <lane id=":1685220132_0_1" index="1" disallow="tram rail_urban rail rail_electric ship" speed="27.78" length="9.62" shape="791.47,823.37 783.66,817.73"/>
    </edge>
    <edge id=":1685220132_2" function="internal">
        <lane id=":1685220132_2_0" index="0" disallow="tram rail_urban rail rail_electric ship" speed="25.00" length="8.28" shape="791.47,823.37 789.37,821.58 788.08,819.86 787.58,818.20 787.88,816.59"/>
    </edge>
    <edge id=":1685220132_3" function="internal">
        <lane id=":1685220132_3_0" index="0" disallow="tram rail_urban rail rail_electric ship" speed="25.00" length="8.47" shape="790.90,817.94 789.81,819.34 788.24,819.78 786.19,819.24 783.66,817.73"/>
    </edge>
    <edge id=":1685220132_4" function="internal">
        <lane id=":1685220132_4_0" index="0" disallow="tram rail_urban rail rail_electric ship" speed="22.22" length="4.82" shape="790.90,817.94 789.64,818.73 788.72,818.77 788.13,818.06 787.88,816.59"/>
    </edge>
    <edge id=":1685220134_0" function="internal">
        <lane id=":1685220134_0_0" index="0" disallow="tram rail_urban rail rail_electric ship" speed="27.78" length="0.30" shape="667.60,800.16 667.85,800.34"/>
        <lane id=":1685220134_0_1" index="1" disallow="tram rail_urban rail rail_electric ship" speed="27.78" length="0.30" shape="665.67,802.84 665.92,803.02"/>
    </edge>
    <edge id=":1685220137_0" function="internal">
        <lane id=":1685220137_0_0" index="0" disallow="tram rail_urban rail rail_electric ship" speed="27.78" length="0.29" shape="564.99,748.82 565.27,748.95"/>
        <lane id=":1685220137_0_1" index="1" disallow="tram rail_urban rail rail_electric ship" speed="27.78" length="0.29" shape="563.66,751.84 563.91,751.95"/>
    </edge>
    <edge id=":1685220139_0" function="internal">
        <lane id=":1685220139_0_0" index="0" disallow="tram rail_urban rail rail_electric ship" speed="27.78" length="9.50" shape="575.19,738.55 566.47,734.80"/>
        <lane id=":1685220139_0_1" index="1" disallow="tram rail_urban rail rail_electric ship" speed="27.78" length="9.50" shape="576.50,735.52 567.77,731.77"/>
    </edge>
    <edge id=":1685220139_2" function="internal">
        <lane id=":1685220139_2_0" index="0" disallow="tram rail_urban rail rail_electric ship" speed="25.00" length="7.89" shape="576.50,735.52 574.00,734.23 572.40,732.89 571.70,731.51 571.89,730.09"/>
    </edge>
    <edge id=":1685220139_3" function="internal">
        <lane id=":1685220139_3_0" index="0" disallow="tram rail_urban rail rail_electric ship" speed="25.00" length="7.87" shape="574.91,731.44 573.98,732.53 572.49,732.94 570.42,732.69 567.77,731.77"/>
    </edge>
    <edge id=":1685220139_4" function="internal">
        <lane id=":1685220139_4_0" index="0" disallow="tram rail_urban rail rail_electric ship" speed="22.22" length="4.82" shape="574.91,731.44 573.65,732.23 572.73,732.27 572.14,731.55 571.89,730.09"/>
    </edge>
    <edge id=":1685220150_0" function="internal">
        <lane id=":1685220150_0_0" index="0" disallow="tram rail_urban rail rail_electric ship" speed="22.22" length="2.70" shape="1012.26,623.12 1012.33,623.91 1012.31,624.46 1012.15,625.00 1011.83,625.72"/>
    </edge>
    <edge id=":1685220150_1" function="internal">
        <lane id=":1685220150_1_0" index="0" disallow="tram rail_urban rail rail_electric ship" speed="22.22" length="2.85" shape="1012.26,623.12 1011.58,624.44 1010.80,624.94 1010.39,624.78"/>
    </edge>
    <edge id=":1685220150_4" function="internal">
        <lane id=":1685220150_4_0" index="0" speed="22.22" length="1.97" shape="1010.39,624.78 1009.94,624.62 1008.98,623.47"/>
    </edge>
    <edge id=":1685220150_2" function="internal">
        <lane id=":1685220150_2_0" index="0" disallow="tram rail_urban rail rail_electric ship" speed="22.22" length="0.88" shape="1008.84,624.32 1008.95,624.09 1009.00,623.91 1009.00,623.73 1008.98,623.47"/>
    </edge>
    <edge id=":1685220150_3" function="internal">
        <lane id=":1685220150_3_0" index="0" disallow="tram rail_urban rail rail_electric ship" speed="22.22" length="2.07" shape="1008.84,624.32 1010.11,623.55 1010.69,623.54"/>
    </edge>
    <edge id=":1685220150_5" function="internal">
        <lane id=":1685220150_5_0" index="0" speed="22.22" length="2.75" shape="1010.69,623.54 1011.03,623.53 1011.61,624.25 1011.83,625.72"/>
    </edge>
    <edge id=":1685220151_0" function="internal">
        <lane id=":1685220151_0_0" index="0" disallow="tram rail_urban rail rail_electric ship" speed="27.78" length="9.54" shape="325.27,628.68 316.55,624.76"/>
        <lane id=":1685220151_0_1" index="1" disallow="tram rail_urban rail rail_electric ship" speed="27.78" length="9.54" shape="326.61,625.66 317.92,621.76"/>
    </edge>
    <edge id=":1685220151_2" function="internal">
        <lane id=":1685220151_2_0" index="0" disallow="tram rail_urban rail rail_electric ship" speed="20.84" length="8.04" shape="326.61,625.66 324.10,624.31 322.54,622.92 321.92,621.47 322.25,619.98"/>
    </edge>
    <edge id=":1685220151_3" function="internal">
        <lane id=":1685220151_3_0" index="0" disallow="tram rail_urban rail rail_electric ship" speed="20.84" length="7.97" shape="325.17,621.52 324.15,622.60 322.60,623.00 320.53,622.72 317.92,621.76"/>
    </edge>
    <edge id=":1685220151_4" function="internal">
        <lane id=":1685220151_4_0" index="0" disallow="tram rail_urban rail rail_electric ship" speed="13.89" length="4.82" shape="325.17,621.52 323.86,622.23 322.94,622.21 322.40,621.46 322.25,619.98"/>
    </edge>
    <edge id=":1685220152_0" function="internal">
        <lane id=":1685220152_0_0" index="0" disallow="tram rail_urban rail rail_electric ship" speed="22.22" length="9.87" shape="913.06,543.31 912.25,546.12 911.63,548.03 910.88,549.89 909.70,552.57"/>
    </edge>
    <edge id=":1685220152_1" function="internal">
        <lane id=":1685220152_1_0" index="0" disallow="tram rail_urban rail rail_electric ship" speed="22.22" length="4.82" shape="913.06,543.31 911.93,544.27 911.02,544.44 910.34,543.82 909.89,542.40"/>
    </edge>
    <edge id=":1685220152_2" function="internal">
        <lane id=":1685220152_2_0" index="0" disallow="tram rail_urban rail rail_electric ship" speed="22.22" length="4.90" shape="906.02,543.92 907.41,544.33 908.51,544.22 909.34,543.57 909.89,542.40"/>
    </edge>
    <edge id=":1685220152_3" function="internal">
        <lane id=":1685220152_3_0" index="0" disallow="tram rail_urban rail rail_electric ship" speed="22.22" length="8.28" shape="904.69,546.94 907.36,548.33 909.08,549.73 909.86,551.15 909.70,552.57"/>
    </edge>
    <edge id=":1685220152_4" function="internal">
        <lane id=":1685220152_4_0" index="0" disallow="tram rail_urban rail rail_electric ship" speed="22.22" length="9.39" shape="906.68,551.22 907.81,548.67 908.52,546.90 909.12,545.08 909.89,542.40"/>
    </edge>
    <edge id=":1685220152_5" function="internal">
        <lane id=":1685220152_5_0" index="0" disallow="tram rail_urban rail rail_electric ship" speed="22.22" length="4.82" shape="906.68,551.22 907.94,550.43 908.87,550.39 909.45,551.10 909.70,552.57"/>
    </edge>
    <edge id=":1685220153_0" function="internal">
        <lane id=":1685220153_0_0" index="0" disallow="tram rail_urban rail rail_electric ship" speed="13.89" length="9.34" shape="368.39,537.22 364.24,545.59"/>
    </edge>
    <edge id=":1685220153_1" function="internal">
        <lane id=":1685220153_1_0" index="0" disallow="tram rail_urban rail rail_electric ship" speed="13.89" length="5.06" shape="368.39,537.22 366.79,539.45 364.82,540.66"/>
    </edge>
    <edge id=":1685220153_2" function="internal">
        <lane id=":1685220153_2_0" index="0" disallow="tram rail_urban rail rail_electric ship" speed="13.89" length="2.41" shape="368.39,537.22 367.09,537.94 366.17,537.93"/>
    </edge>
    <edge id=":1685220153_9" function="internal">
        <lane id=":1685220153_9_0" index="0" speed="13.89" length="5.19" shape="364.82,540.66 362.48,540.86 359.76,540.05"/>
    </edge>
    <edge id=":1685220153_10" function="internal">
        <lane id=":1685220153_10_0" index="0" speed="13.89" length="2.41" shape="366.17,537.93 365.63,537.18 365.46,535.70"/>
    </edge>
    <edge id=":1685220153_3" function="internal">
        <lane id=":1685220153_3_0" index="0" disallow="tram rail_urban rail rail_electric ship" speed="13.89" length="5.12" shape="361.13,537.05 362.51,537.47 363.69,537.38 364.67,536.79 365.46,535.70"/>
    </edge>
    <edge id=":1685220153_4" function="internal">
        <lane id=":1685220153_4_0" index="0" disallow="tram rail_urban rail rail_electric ship" speed="13.89" length="10.41" shape="361.13,537.05 363.54,538.59 364.86,540.53 365.09,542.86 364.24,545.59"/>
    </edge>
    <edge id=":1685220153_5" function="internal">
        <lane id=":1685220153_5_0" index="0" disallow="tram rail_urban rail rail_electric ship" speed="13.89" length="4.82" shape="361.13,537.05 361.91,538.31 361.95,539.23 361.23,539.81 359.76,540.05"/>
    </edge>
    <edge id=":1685220153_6" function="internal">
        <lane id=":1685220153_6_0" index="0" disallow="tram rail_urban rail rail_electric ship" speed="13.89" length="5.02" shape="361.26,544.17 361.68,542.85 361.56,541.73 360.92,540.79 359.76,540.05"/>
    </edge>
    <edge id=":1685220153_7" function="internal">
        <lane id=":1685220153_7_0" index="0" disallow="tram rail_urban rail rail_electric ship" speed="13.89" length="9.45" shape="361.26,544.17 365.46,535.70"/>
    </edge>
    <edge id=":1685220153_8" function="internal">
        <lane id=":1685220153_8_0" index="0" disallow="tram rail_urban rail rail_electric ship" speed="13.89" length="2.41" shape="361.26,544.17 362.54,543.41 363.46,543.39"/>
    </edge>
    <edge id=":1685220153_11" function="internal">
        <lane id=":1685220153_11_0" index="0" speed="13.89" length="2.41" shape="363.46,543.39 364.03,544.12 364.24,545.59"/>
    </edge>
    <edge id=":1685220155_0" function="internal">
        <lane id=":1685220155_0_0" index="0" disallow="tram rail_urban rail rail_electric ship" speed="22.22" length="6.37" shape="930.37,513.25 929.22,513.62 928.10,514.46 927.00,515.76 925.93,517.52"/>
    </edge>
    <edge id=":1685220155_1" function="internal">
        <lane id=":1685220155_1_0" index="0" disallow="tram rail_urban rail rail_electric ship" speed="22.22" length="9.76" shape="930.37,513.25 927.50,513.31 925.54,512.92 923.57,512.49 920.70,512.41"/>
    </edge>
    <edge id=":1685220155_2" function="internal">
        <lane id=":1685220155_2_0" index="0" disallow="tram rail_urban rail rail_electric ship" speed="22.22" length="4.82" shape="930.37,513.25 929.04,512.58 928.53,511.81 928.85,510.94 929.98,509.97"/>
    </edge>
    <edge id=":1685220155_3" function="internal">
        <lane id=":1685220155_3_0" index="0" disallow="tram rail_urban rail rail_electric ship" speed="22.22" length="5.90" shape="923.02,515.98 923.64,514.31 923.46,513.16 922.48,512.52 920.70,512.41"/>
    </edge>
    <edge id=":1685220155_4" function="internal">
        <lane id=":1685220155_4_0" index="0" disallow="tram rail_urban rail rail_electric ship" speed="22.22" length="9.55" shape="923.02,515.98 924.55,513.53 926.22,511.72 928.03,510.53 929.98,509.97"/>
    </edge>
    <edge id=":1685220155_5" function="internal">
        <lane id=":1685220155_5_0" index="0" disallow="tram rail_urban rail rail_electric ship" speed="22.22" length="4.82" shape="923.02,515.98 924.32,515.27 925.25,515.29 925.78,516.04 925.93,517.52"/>
    </edge>
    <edge id=":1685220157_0" function="internal">
        <lane id=":1685220157_0_0" index="0" disallow="tram rail_urban rail rail_electric ship" speed="22.22" length="2.60" shape="996.34,507.02 996.17,506.33 995.81,505.87 995.28,505.62 994.56,505.61"/>
    </edge>
    <edge id=":1685220157_1" function="internal">
        <lane id=":1685220157_1_0" index="0" disallow="tram rail_urban rail rail_electric ship" speed="22.22" length="2.20" shape="996.34,507.02 997.03,505.70 997.63,505.32"/>
    </edge>
    <edge id=":1685220157_4" function="internal">
        <lane id=":1685220157_4_0" index="0" speed="22.22" length="2.62" shape="997.63,505.32 997.81,505.20 998.67,505.53 999.62,506.67"/>
    </edge>
    <edge id=":1685220157_2" function="internal">
        <lane id=":1685220157_2_0" index="0" disallow="tram rail_urban rail rail_electric ship" speed="22.22" length="7.96" shape="994.17,502.33 996.36,502.38 997.99,503.12 999.08,504.55 999.62,506.67"/>
    </edge>
    <edge id=":1685220157_3" function="internal">
        <lane id=":1685220157_3_0" index="0" disallow="tram rail_urban rail rail_electric ship" speed="22.22" length="2.80" shape="994.17,502.33 995.50,503.00 996.01,503.77 995.88,504.14"/>
    </edge>
    <edge id=":1685220157_5" function="internal">
        <lane id=":1685220157_5_0" index="0" speed="22.22" length="2.02" shape="995.88,504.14 995.70,504.64 994.56,505.61"/>
    </edge>
    <edge id=":1685220158_0" function="internal">
        <lane id=":1685220158_0_0" index="0" disallow="tram rail_urban rail rail_electric ship" speed="22.22" length="5.51" shape="806.16,496.42 805.98,497.89 806.28,499.12 807.06,500.13 808.33,500.91"/>
    </edge>
    <edge id=":1685220158_1" function="internal">
        <lane id=":1685220158_1_0" index="0" disallow="tram rail_urban rail rail_electric ship" speed="22.22" length="9.73" shape="806.16,496.42 805.40,499.20 804.80,501.09 804.06,502.92 802.88,505.56"/>
    </edge>
    <edge id=":1685220158_2" function="internal">
        <lane id=":1685220158_2_0" index="0" disallow="tram rail_urban rail rail_electric ship" speed="22.22" length="2.41" shape="806.16,496.42 805.04,497.40 804.14,497.59"/>
    </edge>
    <edge id=":1685220158_10" function="internal">
        <lane id=":1685220158_10_0" index="0" speed="22.22" length="2.41" shape="804.14,497.59 803.45,496.97 802.98,495.56"/>
    </edge>
    <edge id=":1685220158_3" function="internal">
        <lane id=":1685220158_3_0" index="0" disallow="tram rail_urban rail rail_electric ship" speed="22.22" length="4.74" shape="799.18,496.87 800.57,497.30 801.67,497.22 802.47,496.65 802.98,495.56"/>
    </edge>
    <edge id=":1685220158_4" function="internal">
        <lane id=":1685220158_4_0" index="0" disallow="tram rail_urban rail rail_electric ship" speed="22.22" length="10.00" shape="799.18,496.87 808.33,500.91"/>
        <lane id=":1685220158_4_1" index="1" disallow="tram rail_urban rail rail_electric ship" speed="22.22" length="10.00" shape="797.84,499.89 807.00,503.93"/>
    </edge>
    <edge id=":1685220158_6" function="internal">
        <lane id=":1685220158_6_0" index="0" disallow="tram rail_urban rail rail_electric ship" speed="22.22" length="8.33" shape="797.84,499.89 800.53,501.29 802.27,502.71 803.05,504.13 802.88,505.56"/>
    </edge>
    <edge id=":1685220158_7" function="internal">
        <lane id=":1685220158_7_0" index="0" disallow="tram rail_urban rail rail_electric ship" speed="22.22" length="9.19" shape="799.87,504.19 800.99,501.70 801.69,499.97 802.25,498.19 802.98,495.56"/>
    </edge>
    <edge id=":1685220158_8" function="internal">
        <lane id=":1685220158_8_0" index="0" disallow="tram rail_urban rail rail_electric ship" speed="22.22" length="2.97" shape="799.87,504.19 800.80,503.11 802.30,502.71"/>
    </edge>
    <edge id=":1685220158_9" function="internal">
        <lane id=":1685220158_9_0" index="0" disallow="tram rail_urban rail rail_electric ship" speed="22.22" length="2.41" shape="799.87,504.19 801.13,503.41 802.06,503.37"/>
    </edge>
    <edge id=":1685220158_11" function="internal">
        <lane id=":1685220158_11_0" index="0" speed="22.22" length="4.89" shape="802.30,502.71 804.36,502.98 807.00,503.93"/>
    </edge>
    <edge id=":1685220158_12" function="internal">
        <lane id=":1685220158_12_0" index="0" speed="22.22" length="2.41" shape="802.06,503.37 802.64,504.09 802.88,505.56"/>
    </edge>
    <edge id=":1685220160_0" function="internal">
        <lane id=":1685220160_0_0" index="0" disallow="tram rail_urban rail rail_electric ship" speed="22.22" length="7.94" shape="680.50,500.92 679.28,501.36 678.05,502.48 676.80,504.28 675.54,506.76"/>
    </edge>
    <edge id=":1685220160_1" function="internal">
        <lane id=":1685220160_1_0" index="0" disallow="tram rail_urban rail rail_electric ship" speed="22.22" length="10.53" shape="680.50,500.92 670.02,501.96"/>
    </edge>
    <edge id=":1685220160_2" function="internal">
        <lane id=":1685220160_2_0" index="0" disallow="tram rail_urban rail rail_electric ship" speed="22.22" length="2.41" shape="680.50,500.92 679.20,500.20 678.72,499.41"/>
    </edge>
    <edge id=":1685220160_9" function="internal">
        <lane id=":1685220160_9_0" index="0" speed="22.22" length="2.41" shape="678.72,499.41 679.07,498.56 680.23,497.63"/>
    </edge>
    <edge id=":1685220160_3" function="internal">
        <lane id=":1685220160_3_0" index="0" disallow="tram rail_urban rail rail_electric ship" speed="22.22" length="10.61" shape="669.67,498.68 680.23,497.63"/>
    </edge>
    <edge id=":1685220160_4" function="internal">
        <lane id=":1685220160_4_0" index="0" disallow="tram rail_urban rail rail_electric ship" speed="22.22" length="6.12" shape="669.67,498.68 673.78,498.78 675.51,499.81"/>
    </edge>
    <edge id=":1685220160_5" function="internal">
        <lane id=":1685220160_5_0" index="0" disallow="tram rail_urban rail rail_electric ship" speed="22.22" length="2.41" shape="669.67,498.68 670.99,499.37 671.49,500.14"/>
    </edge>
    <edge id=":1685220160_10" function="internal">
        <lane id=":1685220160_10_0" index="0" speed="22.22" length="7.54" shape="675.51,499.81 676.12,500.17 676.71,502.83 675.54,506.76"/>
    </edge>
    <edge id=":1685220160_11" function="internal">
        <lane id=":1685220160_11_0" index="0" speed="22.22" length="2.41" shape="671.49,500.14 671.16,501.01 670.02,501.96"/>
    </edge>
    <edge id=":1685220160_6" function="internal">
        <lane id=":1685220160_6_0" index="0" disallow="tram rail_urban rail rail_electric ship" speed="22.22" length="5.84" shape="672.53,505.41 673.03,503.73 672.78,502.60 671.78,502.00 670.02,501.96"/>
    </edge>
    <edge id=":1685220160_7" function="internal">
        <lane id=":1685220160_7_0" index="0" disallow="tram rail_urban rail rail_electric ship" speed="22.22" length="11.43" shape="672.53,505.41 674.26,502.15 676.12,499.76 678.11,498.26 680.23,497.63"/>
    </edge>
    <edge id=":1685220160_8" function="internal">
        <lane id=":1685220160_8_0" index="0" disallow="tram rail_urban rail rail_electric ship" speed="22.22" length="4.82" shape="672.53,505.41 673.79,504.62 674.71,504.58 675.29,505.30 675.54,506.76"/>
    </edge>
    <edge id=":1685220162_0" function="internal">
        <lane id=":1685220162_0_0" index="0" disallow="tram rail_urban rail rail_electric ship" speed="13.89" length="9.46" shape="393.21,489.32 388.82,497.70"/>
    </edge>
    <edge id=":1685220162_1" function="internal">
        <lane id=":1685220162_1_0" index="0" disallow="tram rail_urban rail rail_electric ship" speed="13.89" length="5.07" shape="393.21,489.32 391.58,491.53 389.58,492.72"/>
    </edge>
    <edge id=":1685220162_2" function="internal">
        <lane id=":1685220162_2_0" index="0" disallow="tram rail_urban rail rail_electric ship" speed="13.89" length="2.41" shape="393.21,489.32 391.90,490.03 390.98,490.00"/>
    </edge>
    <edge id=":1685220162_9" function="internal">
        <lane id=":1685220162_9_0" index="0" speed="13.89" length="5.24" shape="389.58,492.72 387.21,492.88 384.47,492.03"/>
    </edge>
    <edge id=":1685220162_10" function="internal">
        <lane id=":1685220162_10_0" index="0" speed="13.89" length="2.41" shape="390.98,490.00 390.44,489.25 390.29,487.77"/>
    </edge>
    <edge id=":1685220162_3" function="internal">
        <lane id=":1685220162_3_0" index="0" disallow="tram rail_urban rail rail_electric ship" speed="13.89" length="5.19" shape="385.87,489.04 387.27,489.49 388.48,489.43 389.48,488.85 390.29,487.77"/>
    </edge>
    <edge id=":1685220162_4" function="internal">
        <lane id=":1685220162_4_0" index="0" disallow="tram rail_urban rail rail_electric ship" speed="13.89" length="10.53" shape="385.87,489.04 388.30,490.63 389.60,492.60 389.77,494.96 388.82,497.70"/>
    </edge>