<?xml version="1.0" encoding="UTF-8"?>

<!-- generated on Mon Dec 23 16:44:57 2019 by SUMO duarouter Version 0.32.0
<?xml version="1.0" encoding="UTF-8"?>

<configuration xmlns:xsi="http://www.w3.org/2001/XMLSchema-instance" xsi:noNamespaceSchemaLocation="http://sumo.dlr.de/xsd/duarouterConfiguration.xsd">

    <input>
        <net-file value="real.net.xml"/>
        <route-files value="trip.trips.xml"/>
    </input>

    <output>
        <output-file value="route.rou.xml"/>
        <alternatives-output value="route.rou.alt.xml"/>
    </output>

    <processing>
        <ignore-errors value="true"/>
        <repair value="true"/>
    </processing>

</configuration>
-->

<routes xmlns:xsi="http://www.w3.org/2001/XMLSchema-instance" xsi:noNamespaceSchemaLocation="http://sumo.dlr.de/xsd/routes_file.xsd">
    <vehicle id="0" depart="0.00" departLane="best" departPos="random" departSpeed="max">
        <route edges="367619842 450525269 450525270#0 450525270#1 307395967#1 307395967#2"/>
    </vehicle>
    <vehicle id="1" depart="1.00" departLane="best" departPos="random" departSpeed="max">
        <route edges="367619835#1 367619845#0 367619845#1 367619835#0 -450298092 -450298091 -36048880#1 -36048880#0 -303948360 -303948346#1 -156261228"/>
    </vehicle>
    <vehicle id="2" depart="2.00" departLane="best" departPos="random" departSpeed="max">
        <route edges="367619842 450525269 450525270#0 -156261502#4 -156261502#3 36048880#1"/>
    </vehicle>
    <vehicle id="3" depart="3.00" departLane="best" departPos="random" departSpeed="max">
        <route edges="-450525271 -450525267 -156261445 367619833#1 367619845#0 367619845#1 367619846#0 367619846#1 367619846#2 367619840 285027170#3 285027170#0 36054622#0 422082701#0 -418865870#1 418865870#1"/>
    </vehicle>
    <vehicle id="4" depart="4.00" departLane="best" departPos="random" departSpeed="max">
        <route edges="307395967#1 -303948360 369538883#2 369538883#3 540603497#0 540603497#1 540603497#2 307395966 307395963#0 369538880 369538879 307395964 307395967#0"/>
    </vehicle>
    <vehicle id="5" depart="5.00" departLane="best" departPos="random" departSpeed="max">
        <route edges="156261239 -156261523 -450525266 -450525268 -156261502#5 -156261502#4 -450525271 -450525267 -156261445"/>
    </vehicle>
    <vehicle id="6" depart="6.00" departLane="best" departPos="random" departSpeed="max">
        <route edges="303948346#1 -303948346#1 -156261228 156261228"/>
    </vehicle>
    <vehicle id="7" depart="7.00" departLane="best" departPos="random" departSpeed="max">
        <route edges="-450525271 450525271 -156261502#3 -156261502#2 -156261502#1 -156261502#0 -450298095 -450298094 285027168#1"/>
    </vehicle>
    <vehicle id="8" depart="8.00" departLane="best" departPos="random" departSpeed="max">
        <route edges="422082668 -28410277#2 -28410277#1 -28410277#0 285027169 285027170#0 285027170#1 449237832 -367619846#2 -367619846#1 156261279 450298100 450298093"/>
    </vehicle>
    <vehicle id="9" depart="9.00" departLane="best" departPos="random" departSpeed="max">
        <route edges="450525267 450525271 -156261502#3 -36048880#0 -303948360 -303948346#1 -303948346#0"/>
    </vehicle>
    <vehicle id="10" depart="10.00" departLane="best" departPos="random" departSpeed="max">
        <route edges="422082728#4 422082728#5 418865870#1 -422082701#0 36054622#1 450298087 450298089 285027167 369538885 327728883 450298086 450298083 285027168#0 450298094"/>
    </vehicle>
    <vehicle id="11" depart="11.00" departLane="best" departPos="random" departSpeed="max">
        <route edges="-367619846#2 367619846#2 367619840 285027170#3 285027170#0 36054622#0 422082701#0 -418865870#1 -422082728#5 -422082728#4 422082668 28410277#3 28410277#4 -422082677"/>
    </vehicle>
    <vehicle id="12" depart="12.00" departLane="best" departPos="random" departSpeed="max">
        <route edges="-450525271 450525271 156261502#4 -450525270#0"/>
    </vehicle>
    <vehicle id="13" depart="13.00" departLane="best" departPos="random" departSpeed="max">
        <route edges="28410277#4 -28410277#4 -28410277#3 -28410277#2 -28410277#1 -28410277#0 285027169 285027170#0 36054622#0"/>
    </vehicle>
    <vehicle id="14" depart="14.00" departLane="best" departPos="random" departSpeed="max">
        <route edges="450298088#1 450298084 327728882#0 313526162 286011720#7 450298085 450298090#0 450298090#1 367619832 369538883#1"/>
    </vehicle>
    <vehicle id="15" depart="15.00" departLane="best" departPos="random" departSpeed="max">
        <route edges="303948349#2 303948349#3 303948346#0 303948346#1 303948360 36048880#0 -156261502#2"/>
    </vehicle>
    <vehicle id="16" depart="16.00" departLane="best" departPos="random" departSpeed="max">
        <route edges="540603497#0 156261495#0 156261495#1 -451286564 -303948407 303948349#2 -367619831 -303948410 303948410"/>
    </vehicle>
    <vehicle id="17" depart="17.00" departLane="best" departPos="random" departSpeed="max">
        <route edges="-156261342#0 286011720#4 286011720#5 286011720#6 286011720#7 450298085 450298090#0 450298090#1 450298090#2 327728883 450298086 450298083 285027168#0 285027168#1 285027170#2 285027170#3 285027170#0 36054622#0 36054622#1"/>
    </vehicle>
    <vehicle id="18" depart="18.00" departLane="best" departPos="random" departSpeed="max">
        <route edges="303948346#1 369538883#2 369538883#3 -156261557 -450525270#1 156261502#5 450525268 450525266 156261523"/>
    </vehicle>
    <vehicle id="19" depart="19.00" departLane="best" departPos="random" departSpeed="max">
        <route edges="-156261523 -450525266 -450525268 -156261502#5 450525270#1 307395967#1 -303948360 -303948346#1 -156261228 156261228"/>
    </vehicle>
    <vehicle id="20" depart="20.00" departLane="best" departPos="random" departSpeed="max">
        <route edges="-303948424 -451286564 -361247463#1 -361247463#0 -156261557 -450525270#1 156261502#5 450525268"/>
    </vehicle>
    <vehicle id="21" depart="21.00" departLane="best" departPos="random" departSpeed="max">
        <route edges="450298086 450298083 285027168#0 285027168#1 285027170#2 285027170#3 285027170#0 36054622#0 36054622#1 450298087 450298089 285027167 369538885 369538883#0 369538883#1 -303948346#1 -303948346#0 303948361#0 303948361#1 156261342#1 303948349#0 303948349#1 303948349#2"/>
    </vehicle>
    <vehicle id="22" depart="22.00" departLane="best" departPos="random" departSpeed="max">
        <route edges="369538883#1 303948360 36048880#0 -156261502#2 -156261502#1 -156261502#0 156261502#0"/>
    </vehicle>
    <vehicle id="23" depart="23.00" departLane="best" departPos="random" departSpeed="max">
        <route edges="-156261495#1 156261495#1 -451286564 -303948407 303948349#2 303948349#3 303948346#0 -156261228"/>
    </vehicle>
    <vehicle id="24" depart="24.00" departLane="best" departPos="random" departSpeed="max">
        <route edges="-418865870#0 -28410277#0 285027169 285027170#0 285027170#1 449237832 -367619846#2 -367619846#1 -367619846#0 367619835#0 367619835#1 -367619833#1 -367619833#0 367619837 28356592#0 367619842"/>
    </vehicle>
    <vehicle id="25" depart="25.00" departLane="best" departPos="random" departSpeed="max">
        <route edges="-367619842 367619842 450525269 450525270#0 -156261502#4 -156261502#3 -156261502#2 -450298093"/>
    </vehicle>
    <vehicle id="26" depart="26.00" departLane="best" departPos="random" departSpeed="max">
        <route edges="-156261445 367619833#1 367619845#0 367619845#1 367619835#0 -450298092 -450298091 -36048880#1 -36048880#0 -303948360 369538883#2 369538883#3 361247463#0 361247463#1"/>
    </vehicle>
    <vehicle id="27" depart="27.00" departLane="best" departPos="random" departSpeed="max">
        <route edges="-156261342#0 286011720#4 286011720#5 286011720#6 286011720#7 450298085 450298090#0 450298090#1 367619832 369538883#1 303948360 36048880#0 156261502#3 -450525271"/>
    </vehicle>
    <vehicle id="28" depart="28.00" departLane="best" departPos="random" departSpeed="max">
        <route edges="-156261495#0 156261495#0 156261495#1 -451286564 -303948407 303948349#2 -367619831 303948361#1 -156261342#0 156261342#0"/>
    </vehicle>
    <vehicle id="29" depart="29.00" departLane="best" departPos="random" departSpeed="max">
        <route edges="-450525271 -450525267 -156261445 367619833#1 367619845#0 367619845#1 367619846#0 367619846#1 367619846#2 367619840 285027170#3 285027170#0 36054622#0 422082701#0 -418865870#1 -422082728#5 -422082728#4 422082668"/>
    </vehicle>
    <vehicle id="30" depart="30.00" departLane="best" departPos="random" departSpeed="max">
        <route edges="156261238 -156261238 -367619846#1 156261279"/>
    </vehicle>
    <vehicle id="31" depart="31.00" departLane="best" departPos="random" departSpeed="max">
        <route edges="36048880#1 -36048880#1 -36048880#0 307395967#2"/>
    </vehicle>
    <vehicle id="32" depart="32.00" departLane="best" departPos="random" departSpeed="max">
        <route edges="156261228 303948346#1 303948360 36048880#0 36048880#1 450298091 450298092 367619835#1 -367619833#1 -367619833#0 367619837 28356592#0 28356592#1 156261239 -156261523"/>
    </vehicle>
    <vehicle id="33" depart="33.00" departLane="best" departPos="random" departSpeed="max">
        <route edges="450298088#0 450298088#1 450298084 327728882#0 327728882#1 327728882#2 327728882#3 327728882#4 367938206 286011720#3 286011720#4 286011720#5 303948410"/>
    </vehicle>
    <vehicle id="34" depart="34.00" departLane="best" departPos="random" departSpeed="max">
        <route edges="285027169 285027170#0 285027170#1 449237832 -367619846#2 -367619846#1 156261279 450298100 450298093"/>
    </vehicle>
    <vehicle id="35" depart="35.00" departLane="best" departPos="random" departSpeed="max">
        <route edges="-303948407 303948349#2 303948349#3 303948346#0 303948346#1 303948360 307395967#2 369538884 285027167 369538885 369538883#0 369538883#1"/>
    </vehicle>
    <vehicle id="36" depart="36.00" departLane="best" departPos="random" departSpeed="max">
        <route edges="303948346#0 303948346#1 369538883#2 369538883#3 -156261557 -450525270#1"/>
    </vehicle>
    <vehicle id="37" depart="37.00" departLane="best" departPos="random" departSpeed="max">
        <route edges="-451286564 -361247463#1 -361247463#0 540603497#0"/>
    </vehicle>
    <vehicle id="38" depart="38.00" departLane="best" departPos="random" departSpeed="max">
        <route edges="450298088#0 450298088#1 450298084 327728882#0 313526162 286011720#7 450298085 450298090#0 450298090#1 367619832 369538883#1 369538883#2 369538883#3 -156261557 -450525270#1 156261502#5 450525268"/>
    </vehicle>
    <vehicle id="39" depart="39.00" departLane="best" departPos="random" departSpeed="max">
        <route edges="361247463#0 -361247463#0 -156261557 307395967#1"/>
    </vehicle>
    <vehicle id="40" depart="40.00" departLane="best" departPos="random" departSpeed="max">
        <route edges="156261495#0 156261495#1 -451286564 -303948407 303948349#2 -367619831 303948361#1 -156261342#0 156261342#0"/>
    </vehicle>
    <vehicle id="41" depart="41.00" departLane="best" departPos="random" departSpeed="max">
        <route edges="-156261228 450298090#1 367619832 369538883#1 369538883#2 369538883#3 -156261557 -450525270#1"/>
    </vehicle>
    <vehicle id="42" depart="42.00" departLane="best" departPos="random" departSpeed="max">
        <route edges="156261351#1 303948346#0 303948346#1 303948360 307395967#2 450298086 450298083 285027168#0 285027168#1 285027170#2 285027170#3 285027170#0 36054622#0 422082701#0 -418865870#1 -422082728#5 -422082728#4 422082668 28410277#3 -422082686"/>
    </vehicle>
    <vehicle id="43" depart="43.00" departLane="best" departPos="random" departSpeed="max">
        <route edges="450298089 285027167 369538885 369538883#0 369538883#1 369538883#2 369538883#3 361247463#0 361247463#1 -303948407"/>
    </vehicle>
    <vehicle id="44" depart="44.00" departLane="best" departPos="random" departSpeed="max">
        <route edges="327728882#0 313526162 286011720#7 450298085 450298090#0 450298090#1 367619832 369538883#1 369538883#2 369538883#3 -156261557 -450525270#1 156261502#5 156261502#6 -156261502#6"/>
    </vehicle>
    <vehicle id="45" depart="45.00" departLane="best" departPos="random" departSpeed="max">
        <route edges="-156261502#4 -156261502#3 -36048880#0 -303948360 -303948346#1 -303948346#0 303948361#0 -303948410 303948410"/>
    </vehicle>
    <vehicle id="46" depart="46.00" departLane="best" departPos="random" departSpeed="max">
        <route edges="-28410277#3 -28410277#2 -28410277#1 -28410277#0"/>
    </vehicle>
    <vehicle id="47" depart="47.00" departLane="best" departPos="random" departSpeed="max">
        <route edges="450298093 -156261502#1 -156261502#0 -450298095 -450298094 285027168#1 285027170#2 285027170#3 285027170#0 36054622#0"/>
    </vehicle>
    <vehicle id="48" depart="48.00" departLane="best" departPos="random" departSpeed="max">
        <route edges="-156261445"/>
    </vehicle>
    <vehicle id="49" depart="49.00" departLane="best" departPos="random" departSpeed="max">
        <route edges="-156261342#0 286011720#4 286011720#5 303948410 -303948410"/>
    </vehicle>
    <vehicle id="50" depart="50.00" departLane="best" departPos="random" departSpeed="max">
        <route edges="-156261342#0 286011720#4 286011720#5 286011720#6 286011720#7 450298085 450298090#0 450298090#1 450298090#2 327728883 450298086 450298083 285027168#0 285027168#1 285027170#2 285027170#3 285027170#0 36054622#0"/>
    </vehicle>
    <vehicle id="51" depart="51.00" departLane="best" departPos="random" departSpeed="max">
        <route edges="303948346#1 303948360 307395967#2 450298086 450298083 285027168#0 285027168#1 285027170#2 285027170#3 285027170#0 36054622#0 422082701#0 -418865870#1 -418865870#0 -28410277#0"/>
    </vehicle>
    <vehicle id="52" depart="52.00" departLane="best" departPos="random" departSpeed="max">
        <route edges="-422082728#5 422082728#5 418865870#1 -422082701#0 36054622#1 450298087 450298089 285027167 369538885 369538883#0 369538883#1 369538883#2"/>
    </vehicle>
    <vehicle id="53" depart="53.00" departLane="best" departPos="random" departSpeed="max">
        <route edges="303948346#1 369538883#2 369538883#3 -156261557 -450525270#1 -450525270#0 -450525269 -367619842"/>
    </vehicle>
    <vehicle id="54" depart="54.00" departLane="best" departPos="random" departSpeed="max">
        <route edges="-450298094 285027168#1 449237832 -367619846#2 -367619846#1 -367619846#0 367619835#0 367619835#1 -367619833#1 156261445 -156261445"/>
    </vehicle>
    <vehicle id="55" depart="55.00" departLane="best" departPos="random" departSpeed="max">
        <route edges="-156261367 369538883#3 -156261557 307395967#1 307395967#2 450298086 450298083 285027168#0 285027168#1 285027170#2 285027170#3 285027170#0 36054622#0 422082701#0 -422082701#0"/>
    </vehicle>
    <vehicle id="56" depart="56.00" departLane="best" departPos="random" departSpeed="max">
        <route edges="-422082686 422082728#3 422082728#4 422082728#5 418865870#1 -422082701#0 36054622#1 450298087 450298089 285027167 369538885 369538883#0 369538883#1 -303948346#1 -303948346#0 303948361#0 303948361#1 156261342#1 303948349#0 303948349#1 303948349#2"/>
    </vehicle>
    <vehicle id="57" depart="57.00" departLane="best" departPos="random" departSpeed="max">
        <route edges="-367619842 367619842 450525269 450525270#0 450525270#1 307395967#1 307395967#2 450298086 450298083 285027168#0 285027168#1 285027170#2 285027170#3 285027170#0 36054622#0 422082701#0 -418865870#1 -418865870#0 418865870#0"/>
    </vehicle>
    <vehicle id="58" depart="58.00" departLane="best" departPos="random" departSpeed="max">
        <route edges="36048880#0 -36048880#0 -303948360 369538883#2 369538883#3 540603497#0 540603497#1 540603497#2 307395966 307395963#0 369538880 369538879 307395964 307395967#0"/>
    </vehicle>
    <vehicle id="59" depart="59.00" departLane="best" departPos="random" departSpeed="max">
        <route edges="28356592#1 156261239 -156261523"/>
    </vehicle>
    <vehicle id="60" depart="60.00" departLane="best" departPos="random" departSpeed="max">
        <route edges="303948407 -361247463#1 -361247463#0 -156261557 307395967#1 36048880#0"/>
    </vehicle>
    <vehicle id="61" depart="61.00" departLane="best" departPos="random" departSpeed="max">
        <route edges="369538883#1 369538883#2"/>
    </vehicle>
    <vehicle id="62" depart="62.00" departLane="best" departPos="random" departSpeed="max">
        <route edges="361247463#0 -361247463#0 -156261557 307395967#1 307395967#2 450298086 450298083 285027168#0 285027168#1 285027170#2 285027170#3 285027170#0 36054622#0 422082701#0 -418865870#1 -422082728#5"/>
    </vehicle>
    <vehicle id="63" depart="63.00" departLane="best" departPos="random" departSpeed="max">
        <route edges="-156261445 367619833#1 367619845#0 367619845#1 367619846#0 367619846#1 367619846#2 367619840 285027170#3 285027170#0 36054622#0 422082701#0 -418865870#1 -422082728#5 422082695"/>
    </vehicle>
    <vehicle id="64" depart="64.00" departLane="best" departPos="random" departSpeed="max">
        <route edges="-156261502#5 450525270#1"/>
    </vehicle>
    <vehicle id="65" depart="65.00" departLane="best" departPos="random" departSpeed="max">
        <route edges="-450525268 -156261502#5 -156261502#4 -156261502#3 -156261502#2 -156261502#1 -450298078 -450298101 -156261238"/>
    </vehicle>
    <vehicle id="66" depart="66.00" departLane="best" departPos="random" departSpeed="max">
        <route edges="-303948410 286011720#6 286011720#7 450298085 450298090#0 450298090#1 450298090#2 327728883 450298086 450298083 285027168#0 285027168#1 285027170#2 285027170#3 285027170#0 36054622#0 422082701#0 -418865870#1 -422082728#5 -422082728#4 422082668"/>
    </vehicle>
    <vehicle id="67" depart="67.00" departLane="best" departPos="random" departSpeed="max">
        <route edges="451286570 156261495#1 -451286564 -303948407 303948349#2 303948349#3 303948346#0 -303948346#0"/>
    </vehicle>
    <vehicle id="68" depart="68.00" departLane="best" departPos="random" departSpeed="max">
        <route edges="-450298093 450298093 -156261502#1 -156261502#0 -450298095 -450298094 285027168#1"/>
    </vehicle>
    <vehicle id="69" depart="69.00" departLane="best" departPos="random" departSpeed="max">
        <route edges="540603497#0 540603497#1 540603497#2 307395966 307395963#0 369538880 369538879 307395964 307395967#0 307395967#1 307395967#2 450298086 450298083 285027168#0 285027168#1 285027170#2 285027170#3 285027170#0 36054622#0 422082701#0 -418865870#1 -422082728#5 -422082728#4"/>
    </vehicle>
    <vehicle id="70" depart="70.00" departLane="best" departPos="random" departSpeed="max">
        <route edges="303948410 367619831 303948349#3 303948346#0 303948346#1 303948360 36048880#0 156261502#3 -450525271 -450525267 -156261445"/>
    </vehicle>
    <vehicle id="71" depart="71.00" departLane="best" departPos="random" departSpeed="max">
        <route edges="-156261351#1 156261351#1 303948361#0 303948361#1 -156261342#0"/>
    </vehicle>
    <vehicle id="72" depart="72.00" departLane="best" departPos="random" departSpeed="max">
        <route edges="156261351#0 156261351#1 303948346#0 303948346#1 303948360 36048880#0 -156261502#2 -450298093"/>
    </vehicle>
    <vehicle id="73" depart="73.00" departLane="best" departPos="random" departSpeed="max">
        <route edges="367619835#1 -367619833#1 -367619833#0 367619837 28356592#0 28356592#1 156261239 -156261523"/>
    </vehicle>
    <vehicle id="74" depart="74.00" departLane="best" departPos="random" departSpeed="max">
        <route edges="-422082695 422082695 -28410277#1 -28410277#0 285027169 285027170#0 285027170#1 449237832 -367619846#2 -367619846#1 -367619846#0 367619835#0 367619835#1 -367619833#1 156261445 450525267"/>
    </vehicle>
    <vehicle id="75" depart="75.00" departLane="best" departPos="random" departSpeed="max">
        <route edges="369538883#2 369538883#3 -156261557 307395967#1 307395967#2 450298086 450298083 285027168#0 285027168#1 285027170#2 285027170#3 285027170#0 36054622#0 422082701#0 -418865870#1 -422082728#5 -422082728#4 422082668 28410277#3 -28410277#3"/>
    </vehicle>
    <vehicle id="76" depart="76.00" departLane="best" departPos="random" departSpeed="max">
        <route edges="-156261367 369538883#3 540603497#0 540603497#1 451286570"/>
    </vehicle>
    <vehicle id="77" depart="77.00" departLane="best" departPos="random" departSpeed="max">
        <route edges="-28410277#1 -28410277#0 285027169 285027170#0 36054622#0 36054622#1 450298087 450298089 285027167 450298088#0 450298088#1 450298084 327728882#0 327728882#1 327728882#2 327728882#3 327728882#4 367938206 286011720#3 286011720#4 286011720#5 303948410"/>
    </vehicle>
    <vehicle id="78" depart="78.00" departLane="best" departPos="random" departSpeed="max">
        <route edges="285027168#0 285027168#1 285027170#2 285027170#3 285027170#0 36054622#0 36054622#1 450298087 450298089 285027167 369538885 369538883#0 369538883#1 369538883#2 369538883#3 540603497#0 540603497#1 540603497#2 307395966 307395963#0 307395963#1 222799332#0 222799332#1 303948421#0 -308511913 308511913"/>
    </vehicle>
    <vehicle id="79" depart="79.00" departLane="best" departPos="random" departSpeed="max">
        <route edges="156261367 156261351#1 303948346#0 303948346#1 303948360 36048880#0 -156261502#2 -156261502#1"/>
    </vehicle>
    <vehicle id="80" depart="80.00" departLane="best" departPos="random" departSpeed="max">
        <route edges="422082668 -28410277#2 -28410277#1 -28410277#0 285027169 285027170#0 36054622#0 36054622#1 450298087 450298089 285027167 369538885 369538883#0 369538883#1 369538883#2 369538883#3 540603497#0 156261495#0 -156261495#0"/>
    </vehicle>
    <vehicle id="81" depart="81.00" departLane="best" departPos="random" departSpeed="max">
        <route edges="-422082728#2 422082728#2 422082686 -28410277#3 -28410277#2 -28410277#1 -28410277#0 285027169 285027170#0 285027170#1 449237832 -367619846#2 -367619846#1 -367619846#0 367619835#0 367619835#1 -367619833#1 -367619833#0 367619837 28356592#0 367619842"/>
    </vehicle>
    <vehicle id="82" depart="82.00" departLane="best" departPos="random" departSpeed="max">
        <route edges="-450298094 285027168#1 449237832 -367619846#2 -367619846#1 156261279 -156261279"/>
    </vehicle>
    <vehicle id="83" depart="83.00" departLane="best" departPos="random" departSpeed="max">
        <route edges="-361247463#0 -156261557 307395967#1 -303948360 -303948346#1 -303948346#0 303948361#0 303948361#1 -156261342#0"/>
    </vehicle>
    <vehicle id="84" depart="84.00" departLane="best" departPos="random" departSpeed="max">
        <route edges="450525271 -156261502#3 -156261502#2 -156261502#1 -156261502#0 -450298095 -450298094 285027168#1 285027170#2 285027170#3 285027170#0 36054622#0 422082701#0 -418865870#1 -422082728#5 -422082728#4 422082668 28410277#3 28410277#4"/>
    </vehicle>
    <vehicle id="85" depart="85.00" departLane="best" departPos="random" departSpeed="max">
        <route edges="367619835#1 -367619833#1 -367619833#0 367619837 28356592#0 28356592#1 156261239 -156261523"/>
    </vehicle>
    <vehicle id="86" depart="86.00" departLane="best" departPos="random" departSpeed="max">
        <route edges="369538883#1 303948360 36048880#0 156261502#3 156261502#4"/>
    </vehicle>
    <vehicle id="87" depart="87.00" departLane="best" departPos="random" departSpeed="max">
        <route edges="367619833#0 156261445 450525267 450525271 156261502#4 -450525270#0"/>
    </vehicle>
    <vehicle id="88" depart="88.00" departLane="best" departPos="random" departSpeed="max">
        <route edges="-450298092 -450298091 -36048880#1 156261502#3 156261502#4 156261502#5"/>
    </vehicle>
    <vehicle id="89" depart="89.00" departLane="best" departPos="random" departSpeed="max">
        <route edges="156261445 -156261445 367619833#1 367619845#0 367619845#1 367619846#0 367619846#1 156261238 450298101 450298078"/>
    </vehicle>
    <vehicle id="90" depart="90.00" departLane="best" departPos="random" departSpeed="max">
        <route edges="422082677 -28410277#4 -28410277#3 -28410277#2 -28410277#1 -28410277#0 285027169 285027170#0 285027170#1 449237832 -367619846#2 -367619846#1 -367619846#0 367619835#0 -450298092 -450298091 -36048880#1 156261502#3 156261502#4"/>
    </vehicle>
    <vehicle id="91" depart="91.00" departLane="best" departPos="random" departSpeed="max">
        <route edges="-303948360 -303948346#1 -303948346#0 303948361#0 -303948410 303948410"/>
    </vehicle>
    <vehicle id="92" depart="92.00" departLane="best" departPos="random" departSpeed="max">
        <route edges="-308511913 -308511912 -303948424 -451286564 -361247463#1 156261351#0 -156261367"/>
    </vehicle>
    <vehicle id="93" depart="93.00" departLane="best" departPos="random" departSpeed="max">
        <route edges="156261351#1 303948346#0 303948346#1 303948360 36048880#0 -156261502#2 -450298093 450298093"/>
    </vehicle>
    <vehicle id="94" depart="94.00" departLane="best" departPos="random" departSpeed="max">
        <route edges="-156261351#0 361247463#1 451286564 303948424 308511912 308511913"/>
    </vehicle>
    <vehicle id="95" depart="95.00" departLane="best" departPos="random" departSpeed="max">
        <route edges="-422082728#4 422082668 -28410277#2 -28410277#1 -28410277#0 285027169 285027170#0 285027170#1 449237832 -367619846#2 156261238 450298101 450298078"/>
    </vehicle>
    <vehicle id="96" depart="96.00" departLane="best" departPos="random" departSpeed="max">
        <route edges="-156261279 -367619846#0 367619835#0 -450298092 -450298091 -36048880#1 -36048880#0 -303948360 369538883#2 369538883#3 361247463#0 361247463#1"/>
    </vehicle>
    <vehicle id="97" depart="97.00" departLane="best" departPos="random" departSpeed="max">
        <route edges="367619842 450525269 450525270#0 450525270#1 307395967#1 -303948360 -303948346#1 -156261228 156261228"/>
    </vehicle>
</routes>
