<?xml version="1.0" encoding="UTF-8"?>
<!-- generated on 2019-12-23 16:44:37.539105 by $Id$
  options: -n real.net.xml -e 98 -l <doubleminus>trip-attributes=departLane="best" departSpeed="max" departPos="random" -o trip.trips.xml
-->
<routes xmlns:xsi="http://www.w3.org/2001/XMLSchema-instance" xsi:noNamespaceSchemaLocation="http://sumo.dlr.de/xsd/routes_file.xsd">
    <trip id="0" depart="0.00" from="367619842" to="307395967#2" departLane="best" departSpeed="max" departPos="random"/>
    <trip id="1" depart="1.00" from="367619835#1" to="-156261228" departLane="best" departSpeed="max" departPos="random"/>
    <trip id="2" depart="2.00" from="367619842" to="36048880#1" departLane="best" departSpeed="max" departPos="random"/>
    <trip id="3" depart="3.00" from="-450525271" to="418865870#1" departLane="best" departSpeed="max" departPos="random"/>
    <trip id="4" depart="4.00" from="307395967#1" to="307395967#0" departLane="best" departSpeed="max" departPos="random"/>
    <trip id="5" depart="5.00" from="156261239" to="-156261445" departLane="best" departSpeed="max" departPos="random"/>
    <trip id="6" depart="6.00" from="303948346#1" to="156261228" departLane="best" departSpeed="max" departPos="random"/>
    <trip id="7" depart="7.00" from="-450525271" to="285027168#1" departLane="best" departSpeed="max" departPos="random"/>
    <trip id="8" depart="8.00" from="422082668" to="450298093" departLane="best" departSpeed="max" departPos="random"/>
    <trip id="9" depart="9.00" from="450525267" to="-303948346#0" departLane="best" departSpeed="max" departPos="random"/>
    <trip id="10" depart="10.00" from="422082728#4" to="450298094" departLane="best" departSpeed="max" departPos="random"/>
    <trip id="11" depart="11.00" from="-367619846#2" to="-422082677" departLane="best" departSpeed="max" departPos="random"/>
    <trip id="12" depart="12.00" from="-450525271" to="-450525270#0" departLane="best" departSpeed="max" departPos="random"/>
    <trip id="13" depart="13.00" from="28410277#4" to="36054622#0" departLane="best" departSpeed="max" departPos="random"/>
    <trip id="14" depart="14.00" from="450298088#1" to="369538883#1" departLane="best" departSpeed="max" departPos="random"/>
    <trip id="15" depart="15.00" from="303948349#2" to="-156261502#2" departLane="best" departSpeed="max" departPos="random"/>
    <trip id="16" depart="16.00" from="540603497#0" to="303948410" departLane="best" departSpeed="max" departPos="random"/>
    <trip id="17" depart="17.00" from="-156261342#0" to="36054622#1" departLane="best" departSpeed="max" departPos="random"/>
    <trip id="18" depart="18.00" from="303948346#1" to="156261523" departLane="best" departSpeed="max" departPos="random"/>
    <trip id="19" depart="19.00" from="-156261523" to="156261228" departLane="best" departSpeed="max" departPos="random"/>
    <trip id="20" depart="20.00" from="-303948424" to="450525268" departLane="best" departSpeed="max" departPos="random"/>
    <trip id="21" depart="21.00" from="450298086" to="303948349#2" departLane="best" departSpeed="max" departPos="random"/>
    <trip id="22" depart="22.00" from="369538883#1" to="156261502#0" departLane="best" departSpeed="max" departPos="random"/>
    <trip id="23" depart="23.00" from="-156261495#1" to="-156261228" departLane="best" departSpeed="max" departPos="random"/>
    <trip id="24" depart="24.00" from="-418865870#0" to="367619842" departLane="best" departSpeed="max" departPos="random"/>
    <trip id="25" depart="25.00" from="-367619842" to="-450298093" departLane="best" departSpeed="max" departPos="random"/>
    <trip id="26" depart="26.00" from="-156261445" to="361247463#1" departLane="best" departSpeed="max" departPos="random"/>
    <trip id="27" depart="27.00" from="-156261342#0" to="-450525271" departLane="best" departSpeed="max" departPos="random"/>
    <trip id="28" depart="28.00" from="-156261495#0" to="156261342#0" departLane="best" departSpeed="max" departPos="random"/>
    <trip id="29" depart="29.00" from="-450525271" to="422082668" departLane="best" departSpeed="max" departPos="random"/>
    <trip id="30" depart="30.00" from="156261238" to="156261279" departLane="best" departSpeed="max" departPos="random"/>
    <trip id="31" depart="31.00" from="36048880#1" to="307395967#2" departLane="best" departSpeed="max" departPos="random"/>
    <trip id="32" depart="32.00" from="156261228" to="-156261523" departLane="best" departSpeed="max" departPos="random"/>
    <trip id="33" depart="33.00" from="450298088#0" to="303948410" departLane="best" departSpeed="max" departPos="random"/>
    <trip id="34" depart="34.00" from="285027169" to="450298093" departLane="best" departSpeed="max" departPos="random"/>
    <trip id="35" depart="35.00" from="-303948407" to="369538883#1" departLane="best" departSpeed="max" departPos="random"/>
    <trip id="36" depart="36.00" from="303948346#0" to="-450525270#1" departLane="best" departSpeed="max" departPos="random"/>
    <trip id="37" depart="37.00" from="-451286564" to="540603497#0" departLane="best" departSpeed="max" departPos="random"/>
    <trip id="38" depart="38.00" from="450298088#0" to="450525268" departLane="best" departSpeed="max" departPos="random"/>
    <trip id="39" depart="39.00" from="361247463#0" to="307395967#1" departLane="best" departSpeed="max" departPos="random"/>
    <trip id="40" depart="40.00" from="156261495#0" to="156261342#0" departLane="best" departSpeed="max" departPos="random"/>
    <trip id="41" depart="41.00" from="-156261228" to="-450525270#1" departLane="best" departSpeed="max" departPos="random"/>
    <trip id="42" depart="42.00" from="156261351#1" to="-422082686" departLane="best" departSpeed="max" departPos="random"/>
    <trip id="43" depart="43.00" from="450298089" to="-303948407" departLane="best" departSpeed="max" departPos="random"/>
    <trip id="44" depart="44.00" from="327728882#0" to="-156261502#6" departLane="best" departSpeed="max" departPos="random"/>
    <trip id="45" depart="45.00" from="-156261502#4" to="303948410" departLane="best" departSpeed="max" departPos="random"/>
    <trip id="46" depart="46.00" from="-28410277#3" to="-28410277#0" departLane="best" departSpeed="max" departPos="random"/>
    <trip id="47" depart="47.00" from="450298093" to="36054622#0" departLane="best" departSpeed="max" departPos="random"/>
    <trip id="48" depart="48.00" from="-156261445" to="-156261445" departLane="best" departSpeed="max" departPos="random"/>
    <trip id="49" depart="49.00" from="-156261342#0" to="-303948410" departLane="best" departSpeed="max" departPos="random"/>
    <trip id="50" depart="50.00" from="-156261342#0" to="36054622#0" departLane="best" departSpeed="max" departPos="random"/>
    <trip id="51" depart="51.00" from="303948346#1" to="-28410277#0" departLane="best" departSpeed="max" departPos="random"/>
    <trip id="52" depart="52.00" from="-422082728#5" to="369538883#2" departLane="best" departSpeed="max" departPos="random"/>
    <trip id="53" depart="53.00" from="303948346#1" to="-367619842" departLane="best" departSpeed="max" departPos="random"/>
    <trip id="54" depart="54.00" from="-450298094" to="-156261445" departLane="best" departSpeed="max" departPos="random"/>
    <trip id="55" depart="55.00" from="-156261367" to="-422082701#0" departLane="best" departSpeed="max" departPos="random"/>
    <trip id="56" depart="56.00" from="-422082686" to="303948349#2" departLane="best" departSpeed="max" departPos="random"/>
    <trip id="57" depart="57.00" from="-367619842" to="418865870#0" departLane="best" departSpeed="max" departPos="random"/>
    <trip id="58" depart="58.00" from="36048880#0" to="307395967#0" departLane="best" departSpeed="max" departPos="random"/>
    <trip id="59" depart="59.00" from="28356592#1" to="-156261523" departLane="best" departSpeed="max" departPos="random"/>
    <trip id="60" depart="60.00" from="303948407" to="36048880#0" departLane="best" departSpeed="max" departPos="random"/>
    <trip id="61" depart="61.00" from="369538883#1" to="369538883#2" departLane="best" departSpeed="max" departPos="random"/>
    <trip id="62" depart="62.00" from="361247463#0" to="-422082728#5" departLane="best" departSpeed="max" departPos="random"/>
    <trip id="63" depart="63.00" from="-156261445" to="422082695" departLane="best" departSpeed="max" departPos="random"/>
    <trip id="64" depart="64.00" from="-156261502#5" to="450525270#1" departLane="best" departSpeed="max" departPos="random"/>
    <trip id="65" depart="65.00" from="-450525268" to="-156261238" departLane="best" departSpeed="max" departPos="random"/>
    <trip id="66" depart="66.00" from="-303948410" to="422082668" departLane="best" departSpeed="max" departPos="random"/>
    <trip id="67" depart="67.00" from="451286570" to="-303948346#0" departLane="best" departSpeed="max" departPos="random"/>
    <trip id="68" depart="68.00" from="-450298093" to="285027168#1" departLane="best" departSpeed="max" departPos="random"/>
    <trip id="69" depart="69.00" from="540603497#0" to="-422082728#4" departLane="best" departSpeed="max" departPos="random"/>
    <trip id="70" depart="70.00" from="303948410" to="-156261445" departLane="best" departSpeed="max" departPos="random"/>
    <trip id="71" depart="71.00" from="-156261351#1" to="-156261342#0" departLane="best" departSpeed="max" departPos="random"/>
    <trip id="72" depart="72.00" from="156261351#0" to="-450298093" departLane="best" departSpeed="max" departPos="random"/>
    <trip id="73" depart="73.00" from="367619835#1" to="-156261523" departLane="best" departSpeed="max" departPos="random"/>
    <trip id="74" depart="74.00" from="-422082695" to="450525267" departLane="best" departSpeed="max" departPos="random"/>
    <trip id="75" depart="75.00" from="369538883#2" to="-28410277#3" departLane="best" departSpeed="max" departPos="random"/>
    <trip id="76" depart="76.00" from="-156261367" to="451286570" departLane="best" departSpeed="max" departPos="random"/>
    <trip id="77" depart="77.00" from="-28410277#1" to="303948410" departLane="best" departSpeed="max" departPos="random"/>
    <trip id="78" depart="78.00" from="285027168#0" to="308511913" departLane="best" departSpeed="max" departPos="random"/>
    <trip id="79" depart="79.00" from="156261367" to="-156261502#1" departLane="best" departSpeed="max" departPos="random"/>
    <trip id="80" depart="80.00" from="422082668" to="-156261495#0" departLane="best" departSpeed="max" departPos="random"/>
    <trip id="81" depart="81.00" from="-422082728#2" to="367619842" departLane="best" departSpeed="max" departPos="random"/>
    <trip id="82" depart="82.00" from="-450298094" to="-156261279" departLane="best" departSpeed="max" departPos="random"/>
    <trip id="83" depart="83.00" from="-361247463#0" to="-156261342#0" departLane="best" departSpeed="max" departPos="random"/>
    <trip id="84" depart="84.00" from="450525271" to="28410277#4" departLane="best" departSpeed="max" departPos="random"/>
    <trip id="85" depart="85.00" from="367619835#1" to="-156261523" departLane="best" departSpeed="max" departPos="random"/>
    <trip id="86" depart="86.00" from="369538883#1" to="156261502#4" departLane="best" departSpeed="max" departPos="random"/>
    <trip id="87" depart="87.00" from="367619833#0" to="-450525270#0" departLane="best" departSpeed="max" departPos="random"/>
    <trip id="88" depart="88.00" from="-450298092" to="156261502#5" departLane="best" departSpeed="max" departPos="random"/>
    <trip id="89" depart="89.00" from="156261445" to="450298078" departLane="best" departSpeed="max" departPos="random"/>
    <trip id="90" depart="90.00" from="422082677" to="156261502#4" departLane="best" departSpeed="max" departPos="random"/>
    <trip id="91" depart="91.00" from="-303948360" to="303948410" departLane="best" departSpeed="max" departPos="random"/>
    <trip id="92" depart="92.00" from="-308511913" to="-156261367" departLane="best" departSpeed="max" departPos="random"/>
    <trip id="93" depart="93.00" from="156261351#1" to="450298093" departLane="best" departSpeed="max" departPos="random"/>
    <trip id="94" depart="94.00" from="-156261351#0" to="308511913" departLane="best" departSpeed="max" departPos="random"/>
    <trip id="95" depart="95.00" from="-422082728#4" to="450298078" departLane="best" departSpeed="max" departPos="random"/>
    <trip id="96" depart="96.00" from="-156261279" to="361247463#1" departLane="best" departSpeed="max" departPos="random"/>
    <trip id="97" depart="97.00" from="367619842" to="156261228" departLane="best" departSpeed="max" departPos="random"/>
</routes>
