<?xml version="1.0" encoding="UTF-8"?>

<!-- generated on Tue May  5 00:46:42 2020 by Eclipse SUMO netconvert Version 1.4.0
<configuration xmlns:xsi="http://www.w3.org/2001/XMLSchema-instance" xsi:noNamespaceSchemaLocation="http://sumo.dlr.de/xsd/netconvertConfiguration.xsd">

    <input>
        <osm-files value="/home/irham/Downloads/map.osm"/>
    </input>

    <output>
        <output-file value="map.net.xml"/>
    </output>

    <projection>
        <proj.utm value="true"/>
    </projection>

    <report>
        <aggregate-warnings value="5"/>
    </report>

</configuration>
-->

<net version="1.3" junctionCornerDetail="5" limitTurnSpeed="5.50" xmlns:xsi="http://www.w3.org/2001/XMLSchema-instance" xsi:noNamespaceSchemaLocation="http://sumo.dlr.de/xsd/net_file.xsd">

    <location netOffset="-690492.42,806441.05" convBoundary="0.00,0.00,2086.29,2335.08" origBoundary="112.719301,-7.307043,112.744368,-7.271286" projParameter="+proj=utm +zone=49 +ellps=WGS84 +datum=WGS84 +units=m +no_defs"/>

    <type id="highway.bridleway" priority="1" numLanes="1" speed="2.78" allow="pedestrian" oneway="1" width="2.00"/>
    <type id="highway.bus_guideway" priority="1" numLanes="1" speed="27.78" allow="bus" oneway="1"/>
    <type id="highway.cycleway" priority="1" numLanes="1" speed="8.33" allow="bicycle" oneway="0" width="1.00"/>
    <type id="highway.footway" priority="1" numLanes="1" speed="2.78" allow="pedestrian" oneway="1" width="2.00"/>
    <type id="highway.ford" priority="1" numLanes="1" speed="2.78" allow="army" oneway="0"/>
    <type id="highway.living_street" priority="2" numLanes="1" speed="2.78" disallow="tram rail_urban rail rail_electric rail_fast ship" oneway="0"/>
    <type id="highway.motorway" priority="14" numLanes="2" speed="39.44" allow="private emergency authority army vip passenger hov taxi bus coach delivery truck trailer motorcycle evehicle custom1 custom2" oneway="1"/>
    <type id="highway.motorway_link" priority="9" numLanes="1" speed="22.22" allow="private emergency authority army vip passenger hov taxi bus coach delivery truck trailer motorcycle evehicle custom1 custom2" oneway="1"/>
    <type id="highway.path" priority="1" numLanes="1" speed="2.78" allow="pedestrian bicycle" oneway="1" width="2.00"/>
    <type id="highway.pedestrian" priority="1" numLanes="1" speed="2.78" allow="pedestrian" oneway="1" width="2.00"/>
    <type id="highway.primary" priority="12" numLanes="2" speed="27.78" disallow="tram rail_urban rail rail_electric rail_fast ship" oneway="0"/>
    <type id="highway.primary_link" priority="7" numLanes="1" speed="22.22" disallow="tram rail_urban rail rail_electric rail_fast ship" oneway="0"/>
    <type id="highway.raceway" priority="15" numLanes="2" speed="83.33" allow="vip" oneway="0"/>
    <type id="highway.residential" priority="3" numLanes="1" speed="13.89" disallow="tram rail_urban rail rail_electric rail_fast ship" oneway="0"/>
    <type id="highway.secondary" priority="11" numLanes="1" speed="27.78" disallow="tram rail_urban rail rail_electric rail_fast ship" oneway="0"/>
    <type id="highway.secondary_link" priority="6" numLanes="1" speed="22.22" disallow="tram rail_urban rail rail_electric rail_fast ship" oneway="0"/>
    <type id="highway.service" priority="1" numLanes="1" speed="5.56" allow="pedestrian delivery bicycle" oneway="0"/>
    <type id="highway.stairs" priority="1" numLanes="1" speed="1.39" allow="pedestrian" oneway="1" width="2.00"/>
    <type id="highway.step" priority="1" numLanes="1" speed="1.39" allow="pedestrian" oneway="1" width="2.00"/>
    <type id="highway.steps" priority="1" numLanes="1" speed="1.39" allow="pedestrian" oneway="1" width="2.00"/>
    <type id="highway.tertiary" priority="10" numLanes="1" speed="22.22" disallow="tram rail_urban rail rail_electric rail_fast ship" oneway="0"/>
    <type id="highway.tertiary_link" priority="5" numLanes="1" speed="22.22" disallow="tram rail_urban rail rail_electric rail_fast ship" oneway="0"/>
    <type id="highway.track" priority="1" numLanes="1" speed="5.56" disallow="tram rail_urban rail rail_electric rail_fast ship" oneway="0"/>
    <type id="highway.trunk" priority="13" numLanes="2" speed="27.78" disallow="pedestrian bicycle tram rail_urban rail rail_electric rail_fast ship" oneway="0"/>
    <type id="highway.trunk_link" priority="8" numLanes="1" speed="22.22" disallow="pedestrian bicycle tram rail_urban rail rail_electric rail_fast ship" oneway="0"/>
    <type id="highway.unclassified" priority="4" numLanes="1" speed="13.89" disallow="tram rail_urban rail rail_electric rail_fast ship" oneway="0"/>
    <type id="highway.unsurfaced" priority="1" numLanes="1" speed="8.33" disallow="tram rail_urban rail rail_electric rail_fast ship" oneway="0"/>
    <type id="railway.highspeed" priority="21" numLanes="1" speed="69.44" allow="rail_fast" oneway="1"/>
    <type id="railway.light_rail" priority="19" numLanes="1" speed="27.78" allow="rail_urban" oneway="1"/>
    <type id="railway.preserved" priority="16" numLanes="1" speed="27.78" allow="rail" oneway="1"/>
    <type id="railway.rail" priority="20" numLanes="1" speed="44.44" allow="rail" oneway="1"/>
    <type id="railway.subway" priority="18" numLanes="1" speed="27.78" allow="rail_urban" oneway="1"/>
    <type id="railway.tram" priority="17" numLanes="1" speed="13.89" allow="tram" oneway="1"/>

    <edge id=":1091080340_0" function="internal">
        <lane id=":1091080340_0_0" index="0" disallow="tram rail_urban rail rail_electric rail_fast ship" speed="22.22" length="12.13" shape="465.07,1590.59 452.96,1591.47"/>
        <lane id=":1091080340_0_1" index="1" disallow="tram rail_urban rail rail_electric rail_fast ship" speed="22.22" length="12.13" shape="464.82,1587.40 452.73,1588.28"/>
    </edge>
    <edge id=":1091080340_2" function="internal">
        <lane id=":1091080340_2_0" index="0" disallow="pedestrian bicycle tram rail_urban rail rail_electric rail_fast ship" speed="8.68" length="11.42" shape="464.82,1587.40 461.17,1587.42 458.24,1586.85 456.03,1585.69 454.55,1583.94"/>
    </edge>
    <edge id=":1091080340_3" function="internal">
        <lane id=":1091080340_3_0" index="0" disallow="pedestrian bicycle tram rail_urban rail rail_electric rail_fast ship" speed="8.27" length="10.30" shape="464.82,1587.40 462.63,1587.18 460.59,1586.14 458.69,1584.31 456.95,1581.66"/>
    </edge>
    <edge id=":1091080602_0" function="internal">
        <lane id=":1091080602_0_0" index="0" disallow="pedestrian bicycle tram rail_urban rail rail_electric rail_fast ship" speed="7.09" length="4.46" shape="396.92,1596.94 395.79,1597.12 394.77,1597.51 393.85,1598.10 393.04,1598.89"/>
    </edge>
    <edge id=":1091080602_1" function="internal">
        <lane id=":1091080602_1_0" index="0" disallow="pedestrian bicycle tram rail_urban rail rail_electric rail_fast ship" speed="8.75" length="7.01" shape="396.70,1593.75 394.93,1594.03 393.33,1594.64 391.88,1595.57 390.60,1596.81"/>
    </edge>
    <edge id=":1091080602_2" function="internal">
        <lane id=":1091080602_2_0" index="0" disallow="pedestrian bicycle tram rail_urban rail rail_electric rail_fast ship" speed="10.13" length="9.56" shape="396.49,1590.55 394.08,1590.94 391.89,1591.77 389.92,1593.03 388.17,1594.74"/>
    </edge>
    <edge id=":1091080602_3" function="internal">
        <lane id=":1091080602_3_0" index="0" disallow="pedestrian bicycle tram rail_urban rail rail_electric rail_fast ship" speed="27.78" length="4.53" shape="395.99,1595.41 393.04,1598.89"/>
        <lane id=":1091080602_3_1" index="1" disallow="pedestrian bicycle tram rail_urban rail rail_electric rail_fast ship" speed="27.78" length="4.53" shape="393.52,1593.37 390.60,1596.81"/>
        <lane id=":1091080602_3_2" index="2" disallow="pedestrian bicycle tram rail_urban rail rail_electric rail_fast ship" speed="27.78" length="4.53" shape="391.09,1591.29 388.17,1594.74"/>
    </edge>
    <edge id=":1091081038_0" function="internal">
        <lane id=":1091081038_0_0" index="0" disallow="tram rail_urban rail rail_electric rail_fast ship" speed="10.98" length="10.51" shape="1709.60,1407.76 1708.92,1404.78 1708.00,1402.81 1706.50,1401.20 1704.06,1399.33"/>
    </edge>
    <edge id=":1091081038_1" function="internal">
        <lane id=":1091081038_1_0" index="0" disallow="tram rail_urban rail rail_electric rail_fast ship" speed="27.78" length="10.28" shape="1709.60,1407.76 1707.55,1397.69"/>
    </edge>
    <edge id=":1091081422_0" function="internal">
        <lane id=":1091081422_0_0" index="0" disallow="tram rail_urban rail rail_electric rail_fast ship" speed="22.22" length="0.31" shape="1019.86,1510.68 1019.55,1510.73"/>
    </edge>
    <edge id=":1091081422_1" function="internal">
        <lane id=":1091081422_1_0" index="0" disallow="tram rail_urban rail rail_electric rail_fast ship" speed="22.22" length="0.27" shape="1019.11,1507.56 1019.38,1507.52"/>
    </edge>
    <edge id=":1091081777_0" function="internal">
        <lane id=":1091081777_0_0" index="0" disallow="tram rail_urban rail rail_electric rail_fast ship" speed="22.22" length="14.11" shape="1695.32,1395.20 1692.05,1395.17 1689.17,1395.83 1685.93,1396.84 1681.57,1397.89"/>
    </edge>
    <edge id=":1091081777_1" function="internal">
        <lane id=":1091081777_1_0" index="0" disallow="tram rail_urban rail rail_electric rail_fast ship" speed="27.78" length="14.50" shape="1688.63,1387.64 1689.22,1392.20 1689.31,1395.68 1689.33,1398.75 1689.71,1402.07"/>
    </edge>
    <edge id=":1091081777_2" function="internal">
        <lane id=":1091081777_2_0" index="0" disallow="tram rail_urban rail rail_electric rail_fast ship" speed="6.50" length="9.03" shape="1685.48,1388.22 1685.58,1390.69 1684.87,1392.60 1683.34,1393.95 1680.99,1394.74"/>
    </edge>
    <edge id=":1339163336_0" function="internal">
        <lane id=":1339163336_0_0" index="0" disallow="tram rail_urban rail rail_electric rail_fast ship" speed="27.78" length="9.40" shape="1438.89,1115.86 1430.28,1112.08"/>
    </edge>
    <edge id=":1339163336_1" function="internal">
        <lane id=":1339163336_1_0" index="0" disallow="tram rail_urban rail rail_electric rail_fast ship" speed="6.09" length="7.76" shape="1438.89,1115.86 1436.44,1114.58 1434.87,1113.25 1434.18,1111.89 1434.36,1110.49"/>
    </edge>
    <edge id=":1339163336_2" function="internal">
        <lane id=":1339163336_2_0" index="0" disallow="tram rail_urban rail rail_electric rail_fast ship" speed="6.08" length="7.76" shape="1437.30,1111.77 1436.39,1112.86 1434.92,1113.27 1432.88,1113.01 1430.28,1112.08"/>
    </edge>
    <edge id=":1339163336_3" function="internal">
        <lane id=":1339163336_3_0" index="0" disallow="tram rail_urban rail rail_electric rail_fast ship" speed="3.65" length="4.67" shape="1437.30,1111.77 1436.08,1112.55 1435.19,1112.59 1434.62,1111.91 1434.36,1110.49"/>
    </edge>
    <edge id=":1339163343_0" function="internal">
        <lane id=":1339163343_0_0" index="0" disallow="tram rail_urban rail rail_electric rail_fast ship" speed="6.51" length="8.92" shape="1488.96,1007.52 1486.60,1006.90 1484.60,1007.18 1482.96,1008.36 1481.67,1010.44"/>
    </edge>
    <edge id=":1339163343_1" function="internal">
        <lane id=":1339163343_1_0" index="0" disallow="tram rail_urban rail rail_electric rail_fast ship" speed="9.98" length="13.37" shape="1488.96,1007.52 1485.68,1005.76 1483.20,1003.55 1481.53,1000.92 1480.66,997.84"/>
    </edge>
    <edge id=":1339163343_2" function="internal">
        <lane id=":1339163343_2_0" index="0" disallow="tram rail_urban rail rail_electric rail_fast ship" speed="3.65" length="4.67" shape="1488.96,1007.52 1488.16,1006.32 1488.10,1005.42 1488.78,1004.84 1490.20,1004.56"/>
    </edge>
    <edge id=":1339163343_3" function="internal">
        <lane id=":1339163343_3_0" index="0" disallow="tram rail_urban rail rail_electric rail_fast ship" speed="8.72" length="10.05" shape="1483.83,997.39 1484.48,999.63 1485.76,1001.58 1487.66,1003.22 1490.20,1004.56"/>
    </edge>
    <edge id=":1339163343_4" function="internal">
        <lane id=":1339163343_4_0" index="0" disallow="tram rail_urban rail rail_electric rail_fast ship" speed="13.89" length="13.42" shape="1483.83,997.39 1484.07,1000.87 1483.76,1004.05 1482.95,1007.16 1481.67,1010.44"/>
    </edge>
    <edge id=":1339163343_5" function="internal">
        <lane id=":1339163343_5_0" index="0" disallow="tram rail_urban rail rail_electric rail_fast ship" speed="3.65" length="2.34" shape="1483.83,997.39 1483.20,998.69 1482.47,999.20"/>
    </edge>
    <edge id=":1339163343_9" function="internal">
        <lane id=":1339163343_9_0" index="0" disallow="tram rail_urban rail rail_electric rail_fast ship" speed="3.65" length="2.34" shape="1482.47,999.20 1481.62,998.91 1480.66,997.84"/>
    </edge>
    <edge id=":1339163343_6" function="internal">
        <lane id=":1339163343_6_0" index="0" disallow="tram rail_urban rail rail_electric rail_fast ship" speed="13.89" length="11.69" shape="1478.74,1009.15 1479.99,1006.15 1480.71,1003.63 1480.94,1001.05 1480.66,997.84"/>
    </edge>
    <edge id=":1339163343_7" function="internal">
        <lane id=":1339163343_7_0" index="0" disallow="tram rail_urban rail rail_electric rail_fast ship" speed="8.00" length="5.15" shape="1478.74,1009.15 1480.76,1005.89 1481.83,1005.12"/>
    </edge>
    <edge id=":1339163343_8" function="internal">
        <lane id=":1339163343_8_0" index="0" disallow="tram rail_urban rail rail_electric rail_fast ship" speed="3.65" length="2.34" shape="1478.74,1009.15 1479.96,1008.37 1480.85,1008.33"/>
    </edge>
    <edge id=":1339163343_10" function="internal">
        <lane id=":1339163343_10_0" index="0" disallow="tram rail_urban rail rail_electric rail_fast ship" speed="8.00" length="8.87" shape="1481.83,1005.12 1483.34,1004.04 1486.49,1003.60 1490.20,1004.56"/>
    </edge>
    <edge id=":1339163343_11" function="internal">
        <lane id=":1339163343_11_0" index="0" disallow="tram rail_urban rail rail_electric rail_fast ship" speed="3.65" length="2.34" shape="1480.85,1008.33 1481.42,1009.02 1481.67,1010.44"/>
    </edge>
    <edge id=":1682377967_0" function="internal">
        <lane id=":1682377967_0_0" index="0" disallow="tram rail_urban rail rail_electric rail_fast ship" speed="3.65" length="4.67" shape="1073.60,2334.87 1072.96,2336.17 1072.22,2336.67 1071.37,2336.38 1070.42,2335.29"/>
    </edge>
    <edge id=":1685219787_0" function="internal">
        <lane id=":1685219787_0_0" index="0" disallow="tram rail_urban rail rail_electric rail_fast ship" speed="3.65" length="4.67" shape="785.72,1978.81 785.18,1980.14 784.47,1980.70 783.61,1980.47 782.58,1979.45"/>
    </edge>
    <edge id=":1685219821_0" function="internal">
        <lane id=":1685219821_0_0" index="0" disallow="tram rail_urban rail rail_electric rail_fast ship" speed="27.78" length="14.35" shape="519.69,1954.44 505.73,1957.72"/>
    </edge>
    <edge id=":1685219821_1" function="internal">
        <lane id=":1685219821_1_0" index="0" disallow="tram rail_urban rail rail_electric rail_fast ship" speed="7.94" length="5.88" shape="519.69,1954.44 515.76,1954.76 513.93,1954.15"/>
    </edge>
    <edge id=":1685219821_2" function="internal">
        <lane id=":1685219821_2_0" index="0" disallow="tram rail_urban rail rail_electric rail_fast ship" speed="3.65" length="2.34" shape="519.69,1954.44 518.35,1953.92 517.78,1953.23"/>
    </edge>
    <edge id=":1685219821_9" function="internal">
        <lane id=":1685219821_9_0" index="0" disallow="tram rail_urban rail rail_electric rail_fast ship" speed="7.94" length="8.45" shape="513.93,1954.15 512.71,1953.74 510.54,1951.36 509.25,1947.63"/>
    </edge>
    <edge id=":1685219821_10" function="internal">
        <lane id=":1685219821_10_0" index="0" disallow="tram rail_urban rail rail_electric rail_fast ship" speed="3.65" length="2.34" shape="517.78,1953.23 517.99,1952.36 518.98,1951.32"/>
    </edge>
    <edge id=":1685219821_3" function="internal">
        <lane id=":1685219821_3_0" index="0" disallow="tram rail_urban rail rail_electric rail_fast ship" speed="6.43" length="9.03" shape="512.40,1947.03 513.21,1949.38 514.58,1950.88 516.50,1951.52 518.98,1951.32"/>
    </edge>
    <edge id=":1685219821_4" function="internal">
        <lane id=":1685219821_4_0" index="0" disallow="tram rail_urban rail rail_electric rail_fast ship" speed="8.15" length="14.23" shape="512.40,1947.03 512.61,1950.95 511.56,1954.04 509.27,1956.30 505.73,1957.72"/>
    </edge>
    <edge id=":1685219821_5" function="internal">
        <lane id=":1685219821_5_0" index="0" disallow="tram rail_urban rail rail_electric rail_fast ship" speed="1.39" length="4.67" shape="512.40,1947.03 511.84,1948.36 511.13,1948.90 510.27,1948.66 509.25,1947.63"/>
    </edge>
    <edge id=":1685219821_6" function="internal">
        <lane id=":1685219821_6_0" index="0" disallow="tram rail_urban rail rail_electric rail_fast ship" speed="6.68" length="9.24" shape="504.98,1954.61 507.26,1953.69 508.73,1952.22 509.40,1950.20 509.25,1947.63"/>
    </edge>
    <edge id=":1685219821_7" function="internal">
        <lane id=":1685219821_7_0" index="0" disallow="tram rail_urban rail rail_electric rail_fast ship" speed="27.78" length="14.39" shape="504.98,1954.61 518.98,1951.32"/>
    </edge>
    <edge id=":1685219821_8" function="internal">
        <lane id=":1685219821_8_0" index="0" disallow="tram rail_urban rail rail_electric rail_fast ship" speed="3.65" length="2.34" shape="504.98,1954.61 506.33,1955.11 506.91,1955.79"/>
    </edge>
    <edge id=":1685219821_11" function="internal">
        <lane id=":1685219821_11_0" index="0" disallow="tram rail_urban rail rail_electric rail_fast ship" speed="3.65" length="2.34" shape="506.91,1955.79 506.71,1956.66 505.73,1957.72"/>
    </edge>
    <edge id=":1685219856_0" function="internal">
        <lane id=":1685219856_0_0" index="0" disallow="tram rail_urban rail rail_electric rail_fast ship" speed="6.46" length="9.03" shape="767.01,1903.49 766.17,1901.16 764.78,1899.67 762.85,1899.03 760.38,1899.23"/>
    </edge>
    <edge id=":1685219856_1" function="internal">
        <lane id=":1685219856_1_0" index="0" disallow="tram rail_urban rail rail_electric rail_fast ship" speed="8.11" length="14.21" shape="767.01,1903.49 766.76,1899.59 767.78,1896.51 770.06,1894.25 773.62,1892.82"/>
    </edge>
    <edge id=":1685219856_2" function="internal">
        <lane id=":1685219856_2_0" index="0" disallow="tram rail_urban rail rail_electric rail_fast ship" speed="3.65" length="4.67" shape="767.01,1903.49 767.55,1902.16 768.25,1901.61 769.12,1901.84 770.14,1902.85"/>
    </edge>
    <edge id=":1685219856_3" function="internal">
        <lane id=":1685219856_3_0" index="0" disallow="tram rail_urban rail rail_electric rail_fast ship" speed="6.64" length="9.18" shape="774.38,1895.93 772.09,1896.85 770.63,1898.31 769.97,1900.31 770.14,1902.85"/>
    </edge>
    <edge id=":1685219856_4" function="internal">
        <lane id=":1685219856_4_0" index="0" disallow="tram rail_urban rail rail_electric rail_fast ship" speed="27.78" length="14.38" shape="774.38,1895.93 760.38,1899.23"/>
    </edge>
    <edge id=":1685219856_5" function="internal">
        <lane id=":1685219856_5_0" index="0" disallow="tram rail_urban rail rail_electric rail_fast ship" speed="3.65" length="2.34" shape="774.38,1895.93 773.02,1895.44 772.45,1894.75"/>
    </edge>
    <edge id=":1685219856_9" function="internal">
        <lane id=":1685219856_9_0" index="0" disallow="tram rail_urban rail rail_electric rail_fast ship" speed="3.65" length="2.34" shape="772.45,1894.75 772.65,1893.88 773.62,1892.82"/>
    </edge>
    <edge id=":1685219856_6" function="internal">
        <lane id=":1685219856_6_0" index="0" disallow="tram rail_urban rail rail_electric rail_fast ship" speed="27.78" length="14.34" shape="759.66,1896.11 773.62,1892.82"/>
    </edge>
    <edge id=":1685219856_7" function="internal">
        <lane id=":1685219856_7_0" index="0" disallow="tram rail_urban rail rail_electric rail_fast ship" speed="7.96" length="5.87" shape="759.66,1896.11 763.58,1895.79 765.42,1896.40"/>
    </edge>
    <edge id=":1685219856_8" function="internal">
        <lane id=":1685219856_8_0" index="0" disallow="tram rail_urban rail rail_electric rail_fast ship" speed="3.65" length="2.34" shape="759.66,1896.11 761.01,1896.62 761.58,1897.32"/>
    </edge>
    <edge id=":1685219856_10" function="internal">
        <lane id=":1685219856_10_0" index="0" disallow="tram rail_urban rail rail_electric rail_fast ship" speed="7.96" length="8.41" shape="765.42,1896.40 766.63,1896.80 768.82,1899.16 770.14,1902.85"/>
    </edge>
    <edge id=":1685219856_11" function="internal">
        <lane id=":1685219856_11_0" index="0" disallow="tram rail_urban rail rail_electric rail_fast ship" speed="3.65" length="2.34" shape="761.58,1897.32 761.37,1898.18 760.38,1899.23"/>
    </edge>
    <edge id=":1685219868_0" function="internal">
        <lane id=":1685219868_0_0" index="0" disallow="tram rail_urban rail rail_electric rail_fast ship" speed="27.78" length="14.19" shape="916.45,1861.85 902.58,1864.86"/>
    </edge>
    <edge id=":1685219868_1" function="internal">
        <lane id=":1685219868_1_0" index="0" disallow="tram rail_urban rail rail_electric rail_fast ship" speed="7.93" length="5.70" shape="916.45,1861.85 912.50,1862.04 910.86,1861.42"/>
    </edge>
    <edge id=":1685219868_2" function="internal">
        <lane id=":1685219868_2_0" index="0" disallow="tram rail_urban rail rail_electric rail_fast ship" speed="3.65" length="2.34" shape="916.45,1861.85 915.12,1861.29 914.57,1860.58"/>
    </edge>
    <edge id=":1685219868_9" function="internal">
        <lane id=":1685219868_9_0" index="0" disallow="tram rail_urban rail rail_electric rail_fast ship" speed="7.93" length="8.64" shape="910.86,1861.42 909.48,1860.91 907.40,1858.45 906.26,1854.67"/>
    </edge>
    <edge id=":1685219868_10" function="internal">
        <lane id=":1685219868_10_0" index="0" disallow="tram rail_urban rail rail_electric rail_fast ship" speed="3.65" length="2.34" shape="914.57,1860.58 914.81,1859.72 915.84,1858.71"/>
    </edge>
    <edge id=":1685219868_3" function="internal">
        <lane id=":1685219868_3_0" index="0" disallow="tram rail_urban rail rail_electric rail_fast ship" speed="6.42" length="9.04" shape="909.42,1854.18 910.14,1856.57 911.45,1858.11 913.35,1858.83 915.84,1858.71"/>
    </edge>
    <edge id=":1685219868_4" function="internal">
        <lane id=":1685219868_4_0" index="0" disallow="tram rail_urban rail rail_electric rail_fast ship" speed="8.26" length="14.20" shape="909.42,1854.18 909.49,1858.11 908.38,1861.20 906.07,1863.45 902.58,1864.86"/>
    </edge>
    <edge id=":1685219868_5" function="internal">
        <lane id=":1685219868_5_0" index="0" disallow="tram rail_urban rail rail_electric rail_fast ship" speed="3.65" length="4.67" shape="909.42,1854.18 908.81,1855.49 908.08,1856.01 907.23,1855.73 906.26,1854.67"/>
    </edge>
    <edge id=":1685219868_6" function="internal">
        <lane id=":1685219868_6_0" index="0" disallow="tram rail_urban rail rail_electric rail_fast ship" speed="6.82" length="9.35" shape="901.83,1861.75 904.10,1860.82 905.59,1859.33 906.31,1857.28 906.26,1854.67"/>
    </edge>
    <edge id=":1685219868_7" function="internal">
        <lane id=":1685219868_7_0" index="0" disallow="tram rail_urban rail rail_electric rail_fast ship" speed="27.78" length="14.34" shape="901.83,1861.75 915.84,1858.71"/>
    </edge>
    <edge id=":1685219868_8" function="internal">
        <lane id=":1685219868_8_0" index="0" disallow="tram rail_urban rail rail_electric rail_fast ship" speed="3.65" length="2.34" shape="901.83,1861.75 903.18,1862.24 903.76,1862.93"/>
    </edge>
    <edge id=":1685219868_11" function="internal">
        <lane id=":1685219868_11_0" index="0" disallow="tram rail_urban rail rail_electric rail_fast ship" speed="3.65" length="2.34" shape="903.76,1862.93 903.56,1863.80 902.58,1864.86"/>
    </edge>
    <edge id=":1685219876_0" function="internal">
        <lane id=":1685219876_0_0" index="0" disallow="tram rail_urban rail rail_electric rail_fast ship" speed="6.60" length="8.91" shape="1002.45,1850.76 1001.53,1848.50 1000.11,1847.04 998.20,1846.36 995.80,1846.48"/>
    </edge>
    <edge id=":1685219876_1" function="internal">
        <lane id=":1685219876_1_0" index="0" disallow="tram rail_urban rail rail_electric rail_fast ship" speed="8.01" length="13.89" shape="1002.45,1850.76 1002.04,1846.99 1002.92,1843.97 1005.09,1841.68 1008.55,1840.13"/>
    </edge>
    <edge id=":1685219876_2" function="internal">
        <lane id=":1685219876_2_0" index="0" disallow="tram rail_urban rail rail_electric rail_fast ship" speed="3.65" length="4.67" shape="1002.45,1850.76 1002.93,1849.40 1003.61,1848.82 1004.48,1849.01 1005.55,1849.97"/>
    </edge>
    <edge id=":1685219876_3" function="internal">
        <lane id=":1685219876_3_0" index="0" disallow="tram rail_urban rail rail_electric rail_fast ship" speed="6.51" length="8.84" shape="1009.43,1843.20 1007.23,1844.19 1005.85,1845.65 1005.29,1847.57 1005.55,1849.97"/>
    </edge>
    <edge id=":1685219876_4" function="internal">
        <lane id=":1685219876_4_0" index="0" disallow="tram rail_urban rail rail_electric rail_fast ship" speed="27.78" length="14.02" shape="1009.43,1843.20 1005.97,1844.16 1002.66,1845.00 999.33,1845.76 995.80,1846.48"/>
    </edge>
    <edge id=":1685219876_5" function="internal">
        <lane id=":1685219876_5_0" index="0" disallow="tram rail_urban rail rail_electric rail_fast ship" speed="3.65" length="2.34" shape="1009.43,1843.20 1008.06,1842.77 1007.45,1842.11"/>
    </edge>
    <edge id=":1685219876_9" function="internal">
        <lane id=":1685219876_9_0" index="0" disallow="tram rail_urban rail rail_electric rail_fast ship" speed="3.65" length="2.34" shape="1007.45,1842.11 1007.62,1841.23 1008.55,1840.13"/>
    </edge>
    <edge id=":1685219876_6" function="internal">
        <lane id=":1685219876_6_0" index="0" disallow="tram rail_urban rail rail_electric rail_fast ship" speed="27.78" length="13.74" shape="995.19,1843.34 998.68,1842.63 1001.91,1841.89 1005.13,1841.08 1008.55,1840.13"/>
    </edge>
    <edge id=":1685219876_7" function="internal">
        <lane id=":1685219876_7_0" index="0" disallow="tram rail_urban rail rail_electric rail_fast ship" speed="8.08" length="5.68" shape="995.19,1843.34 998.94,1843.15 1000.76,1843.79"/>
    </edge>
    <edge id=":1685219876_8" function="internal">
        <lane id=":1685219876_8_0" index="0" disallow="tram rail_urban rail rail_electric rail_fast ship" speed="3.65" length="2.34" shape="995.19,1843.34 996.52,1843.89 997.07,1844.60"/>
    </edge>
    <edge id=":1685219876_10" function="internal">
        <lane id=":1685219876_10_0" index="0" disallow="tram rail_urban rail rail_electric rail_fast ship" speed="8.08" length="8.17" shape="1000.76,1843.79 1001.91,1844.20 1004.12,1846.47 1005.55,1849.97"/>
    </edge>
    <edge id=":1685219876_11" function="internal">
        <lane id=":1685219876_11_0" index="0" disallow="tram rail_urban rail rail_electric rail_fast ship" speed="3.65" length="2.34" shape="997.07,1844.60 996.83,1845.46 995.80,1846.48"/>
    </edge>
    <edge id=":1685219877_0" function="internal">
        <lane id=":1685219877_0_0" index="0" disallow="tram rail_urban rail rail_electric rail_fast ship" speed="1.39" length="9.95" shape="486.48,1828.99 485.59,1826.44 484.10,1824.70 482.02,1823.76 479.35,1823.63"/>
    </edge>
    <edge id=":1685219877_1" function="internal">
        <lane id=":1685219877_1_0" index="0" disallow="tram rail_urban rail rail_electric rail_fast ship" speed="1.39" length="14.93" shape="486.48,1828.99 483.87,1814.29"/>
    </edge>
    <edge id=":1685219877_2" function="internal">
        <lane id=":1685219877_2_0" index="0" disallow="tram rail_urban rail rail_electric rail_fast ship" speed="1.39" length="14.50" shape="486.48,1828.99 486.25,1824.98 487.39,1821.96 489.90,1819.92 493.78,1818.87"/>
    </edge>
    <edge id=":1685219877_3" function="internal">
        <lane id=":1685219877_3_0" index="0" disallow="tram rail_urban rail rail_electric rail_fast ship" speed="1.39" length="4.67" shape="486.48,1828.99 487.03,1827.66 487.73,1827.11 488.59,1827.34 489.62,1828.36"/>
    </edge>
    <edge id=":1685219877_4" function="internal">
        <lane id=":1685219877_4_0" index="0" disallow="tram rail_urban rail rail_electric rail_fast ship" speed="1.39" length="9.04" shape="494.16,1822.04 491.75,1822.70 490.18,1823.97 489.47,1825.85 489.62,1828.36"/>
    </edge>
    <edge id=":1685219877_5" function="internal">
        <lane id=":1685219877_5_0" index="0" disallow="tram rail_urban rail rail_electric rail_fast ship" speed="1.39" length="14.90" shape="494.16,1822.04 479.35,1823.63"/>
    </edge>
    <edge id=":1685219877_6" function="internal">
        <lane id=":1685219877_6_0" index="0" disallow="tram rail_urban rail rail_electric rail_fast ship" speed="1.39" length="14.60" shape="494.16,1822.04 490.17,1821.97 487.12,1820.65 485.02,1818.09 483.87,1814.29"/>
    </edge>
    <edge id=":1685219877_7" function="internal">
        <lane id=":1685219877_7_0" index="0" disallow="tram rail_urban rail rail_electric rail_fast ship" speed="1.39" length="4.67" shape="494.16,1822.04 492.88,1821.39 492.38,1820.65 492.68,1819.81 493.78,1818.87"/>
    </edge>
    <edge id=":1685219877_8" function="internal">
        <lane id=":1685219877_8_0" index="0" disallow="tram rail_urban rail rail_electric rail_fast ship" speed="1.39" length="9.55" shape="487.04,1813.81 487.79,1816.29 489.16,1817.96 491.16,1818.82 493.78,1818.87"/>
    </edge>
    <edge id=":1685219877_9" function="internal">
        <lane id=":1685219877_9_0" index="0" disallow="tram rail_urban rail rail_electric rail_fast ship" speed="1.39" length="14.77" shape="487.04,1813.81 489.62,1828.36"/>
    </edge>
    <edge id=":1685219877_10" function="internal">