<?xml version="1.0" encoding="UTF-8"?>

<!-- generated on Fri May 15 16:51:26 2020 by Eclipse SUMO duarouter Version 1.4.0
<configuration xmlns:xsi="http://www.w3.org/2001/XMLSchema-instance" xsi:noNamespaceSchemaLocation="http://sumo.dlr.de/xsd/duarouterConfiguration.xsd">

    <input>
        <net-file value="map.net.xml"/>
        <route-files value="trip.trips.xml"/>
    </input>

    <output>
        <output-file value="route.rou.xml"/>
        <alternatives-output value="route.rou.alt.xml"/>
    </output>

    <processing>
        <repair value="true"/>
    </processing>

    <report>
        <ignore-errors value="true"/>
    </report>

</configuration>
-->

<routes xmlns:xsi="http://www.w3.org/2001/XMLSchema-instance" xsi:noNamespaceSchemaLocation="http://sumo.dlr.de/xsd/routes_file.xsd">
    <vehicle id="0" depart="0.00" departLane="best" departPos="random_free" departSpeed="max">
        <route edges="D1C1 C1D1 D1D2"/>
    </vehicle>
    <vehicle id="1" depart="1.00" departLane="best" departPos="random_free" departSpeed="max">
        <route edges="D3D2 D2C2 C2C3 C3C2"/>
    </vehicle>
    <vehicle id="2" depart="2.00" departLane="best" departPos="random_free" departSpeed="max">
        <route edges="B2B1 B1B2 B2B3 B3C3"/>
    </vehicle>
    <vehicle id="3" depart="3.00" departLane="best" departPos="random_free" departSpeed="max">
        <route edges="D1C1 C1B1 B1A1 A1A0 A0B0"/>
    </vehicle>
    <vehicle id="4" depart="4.00" departLane="best" departPos="random_free" departSpeed="max">
        <route edges="B3A3 A3A2 A2A1 A1B1 B1C1"/>
    </vehicle>
    <vehicle id="5" depart="5.00" departLane="best" departPos="random_free" departSpeed="max">
        <route edges="A1A2 A2B2 B2B1 B1A1"/>
    </vehicle>
    <vehicle id="6" depart="6.00" departLane="best" departPos="random_free" departSpeed="max">
        <route edges="B2B3 B3C3 C3D3 D3D2 D2C2"/>
    </vehicle>
    <vehicle id="7" depart="7.00" departLane="best" departPos="random_free" departSpeed="max">
        <route edges="B0C0 C0B0 B0B1 B1B2 B2B3 B3B2"/>
    </vehicle>
    <vehicle id="8" depart="8.00" departLane="best" departPos="random_free" departSpeed="max">
        <route edges="B3C3 C3D3 D3D2 D2D1 D1D2"/>
    </vehicle>
    <vehicle id="9" depart="9.00" departLane="best" departPos="random_free" departSpeed="max">
        <route edges="B3C3 C3C2 C2C1 C1B1 B1A1 A1A0 A0B0"/>
    </vehicle>
    <vehicle id="10" depart="10.00" departLane="best" departPos="random_free" departSpeed="max">
        <route edges="D2D1 D1C1 C1B1 B1A1 A1A2 A2A3 A3B3"/>
    </vehicle>
    <vehicle id="11" depart="11.00" departLane="best" departPos="random_free" departSpeed="max">
        <route edges="C2B2 B2A2 A2A1 A1A0"/>
    </vehicle>
    <vehicle id="12" depart="12.00" departLane="best" departPos="random_free" departSpeed="max">
        <route edges="C1B1 B1B2"/>
    </vehicle>
    <vehicle id="13" depart="13.00" departLane="best" departPos="random_free" departSpeed="max">
        <route edges="D0C0 C0B0 B0C0"/>
    </vehicle>
    <vehicle id="14" depart="14.00" departLane="best" departPos="random_free" departSpeed="max">
        <route edges="B3A3 A3A2 A2B2 B2C2 C2B2"/>
    </vehicle>
    <vehicle id="15" depart="15.00" departLane="best" departPos="random_free" departSpeed="max">
        <route edges="C2B2 B2C2 C2C1 C1C0 C0B0"/>
    </vehicle>
    <vehicle id="16" depart="16.00" departLane="best" departPos="random_free" departSpeed="max">
        <route edges="C1C2 C2B2 B2A2 A2A1"/>
    </vehicle>
    <vehicle id="17" depart="17.00" departLane="best" departPos="random_free" departSpeed="max">
        <route edges="B1A1 A1A2 A2A3"/>
    </vehicle>
    <vehicle id="18" depart="18.00" departLane="best" departPos="random_free" departSpeed="max">
        <route edges="B0B1 B1B2 B2A2 A2A1"/>
    </vehicle>
    <vehicle id="19" depart="19.00" departLane="best" departPos="random_free" departSpeed="max">
        <route edges="B1C1 C1C0 C0B0 B0C0"/>
    </vehicle>
    <vehicle id="20" depart="20.00" departLane="best" departPos="random_free" departSpeed="max">
        <route edges="A1A0 A0B0 B0C0 C0D0 D0D1 D1D2"/>
    </vehicle>
    <vehicle id="21" depart="21.00" departLane="best" departPos="random_free" departSpeed="max">
        <route edges="D3C3 C3B3 B3A3 A3A2 A2B2"/>
    </vehicle>
    <vehicle id="22" depart="22.00" departLane="best" departPos="random_free" departSpeed="max">
        <route edges="B0A0 A0A1 A1A2"/>
    </vehicle>
    <vehicle id="23" depart="23.00" departLane="best" departPos="random_free" departSpeed="max">
        <route edges="A3B3 B3C3 C3D3 D3D2 D2D1 D1D2"/>
    </vehicle>
    <vehicle id="24" depart="24.00" departLane="best" departPos="random_free" departSpeed="max">
        <route edges="B3A3 A3A2 A2B2 B2A2"/>
    </vehicle>
    <vehicle id="25" depart="25.00" departLane="best" departPos="random_free" departSpeed="max">
        <route edges="A0A1 A1A0 A0B0"/>
    </vehicle>
    <vehicle id="26" depart="26.00" departLane="best" departPos="random_free" departSpeed="max">
        <route edges="C1B1 B1A1 A1A0 A0B0"/>
    </vehicle>
    <vehicle id="27" depart="27.00" departLane="best" departPos="random_free" departSpeed="max">
        <route edges="D1C1 C1B1 B1B2 B2B3 B3A3"/>
    </vehicle>
    <vehicle id="28" depart="28.00" departLane="best" departPos="random_free" departSpeed="max">
        <route edges="B1A1 A1A2 A2B2 B2B1"/>
    </vehicle>
    <vehicle id="29" depart="29.00" departLane="best" departPos="random_free" departSpeed="max">
        <route edges="C1C0 C0C1 C1C2 C2D2 D2D1"/>
    </vehicle>
    <vehicle id="30" depart="30.00" departLane="best" departPos="random_free" departSpeed="max">
        <route edges="B0A0 A0A1 A1A0"/>
    </vehicle>
    <vehicle id="31" depart="31.00" departLane="best" departPos="random_free" departSpeed="max">
        <route edges="B3B2 B2C2 C2C1"/>
    </vehicle>
    <vehicle id="32" depart="32.00" departLane="best" departPos="random_free" departSpeed="max">
        <route edges="A2B2 B2A2"/>
    </vehicle>
    <vehicle id="33" depart="33.00" departLane="best" departPos="random_free" departSpeed="max">
        <route edges="B0A0 A0A1 A1A0 A0B0"/>
    </vehicle>
    <vehicle id="34" depart="34.00" departLane="best" departPos="random_free" departSpeed="max">
        <route edges="A1A2 A2A3 A3B3 B3C3 C3D3 D3D2"/>
    </vehicle>
    <vehicle id="35" depart="35.00" departLane="best" departPos="random_free" departSpeed="max">
        <route edges="A1A0 A0B0 B0B1 B1C1 C1C0"/>
    </vehicle>
    <vehicle id="36" depart="36.00" departLane="best" departPos="random_free" departSpeed="max">
        <route edges="C2C3 C3B3 B3C3"/>
    </vehicle>
    <vehicle id="37" depart="37.00" departLane="best" departPos="random_free" departSpeed="max">
        <route edges="C3C2 C2B2 B2A2 A2A3 A3B3"/>
    </vehicle>
    <vehicle id="38" depart="38.00" departLane="best" departPos="random_free" departSpeed="max">
        <route edges="D1C1 C1C2 C2D2 D2D3 D3C3"/>
    </vehicle>
    <vehicle id="39" depart="39.00" departLane="best" departPos="random_free" departSpeed="max">
        <route edges="B3B2 B2B1 B1C1"/>
    </vehicle>
    <vehicle id="40" depart="40.00" departLane="best" departPos="random_free" departSpeed="max">
        <route edges="D2D1 D1D0 D0C0 C0B0 B0C0"/>
    </vehicle>
    <vehicle id="41" depart="41.00" departLane="best" departPos="random_free" departSpeed="max">
        <route edges="C1C2 C2C1 C1B1 B1B2"/>
    </vehicle>
    <vehicle id="42" depart="42.00" departLane="best" departPos="random_free" departSpeed="max">
        <route edges="A0B0 B0B1 B1B0"/>
    </vehicle>
    <vehicle id="43" depart="43.00" departLane="best" departPos="random_free" departSpeed="max">
        <route edges="A0B0 B0B1 B1B2 B2A2"/>
    </vehicle>
    <vehicle id="44" depart="44.00" departLane="best" departPos="random_free" departSpeed="max">
        <route edges="B0C0 C0C1 C1C2 C2C3"/>
    </vehicle>
    <vehicle id="45" depart="45.00" departLane="best" departPos="random_free" departSpeed="max">
        <route edges="B0C0 C0C1"/>
    </vehicle>
    <vehicle id="46" depart="46.00" departLane="best" departPos="random_free" departSpeed="max">
        <route edges="A1B1 B1B0 B0A0 A0A1"/>
    </vehicle>
    <vehicle id="47" depart="47.00" departLane="best" departPos="random_free" departSpeed="max">
        <route edges="C2D2 D2C2 C2C3 C3D3 D3D2"/>
    </vehicle>
    <vehicle id="48" depart="48.00" departLane="best" departPos="random_free" departSpeed="max">
        <route edges="D3C3 C3B3 B3A3 A3A2"/>
    </vehicle>
    <vehicle id="49" depart="49.00" departLane="best" departPos="random_free" departSpeed="max">
        <route edges="B1A1 A1A0 A0B0"/>
    </vehicle>
    <vehicle id="50" depart="50.00" departLane="best" departPos="random_free" departSpeed="max">
        <route edges="B1A1 A1A2 A2A3 A3B3 B3A3 A3A2"/>
    </vehicle>
    <vehicle id="51" depart="51.00" departLane="best" departPos="random_free" departSpeed="max">
        <route edges="D0C0 C0B0 B0B1 B1B2 B2B1"/>
    </vehicle>
    <vehicle id="52" depart="52.00" departLane="best" departPos="random_free" departSpeed="max">
        <route edges="B1C1 C1C2 C2D2 D2C2"/>
    </vehicle>
    <vehicle id="53" depart="53.00" departLane="best" departPos="random_free" departSpeed="max">
        <route edges="D3D2 D2D1 D1D0 D0C0 C0D0"/>
    </vehicle>
    <vehicle id="54" depart="54.00" departLane="best" departPos="random_free" departSpeed="max">
        <route edges="B1A1 A1B1 B1B0 B0B1"/>
    </vehicle>
    <vehicle id="55" depart="55.00" departLane="best" departPos="random_free" departSpeed="max">
        <route edges="C3B3 B3C3 C3C2 C2C1 C1B1"/>
    </vehicle>
    <vehicle id="56" depart="56.00" departLane="best" departPos="random_free" departSpeed="max">
        <route edges="C2B2 B2C2 C2C1 C1C0 C0B0"/>
    </vehicle>
    <vehicle id="57" depart="57.00" departLane="best" departPos="random_free" departSpeed="max">
        <route edges="C3D3 D3D2 D2C2 C2B2 B2B3 B3B2"/>
    </vehicle>
    <vehicle id="58" depart="58.00" departLane="best" departPos="random_free" departSpeed="max">
        <route edges="B2B1 B1A1 A1A2 A2A1"/>
    </vehicle>
    <vehicle id="59" depart="59.00" departLane="best" departPos="random_free" departSpeed="max">
        <route edges="D1D2 D2D3 D3C3 C3B3 B3A3 A3A2"/>
    </vehicle>
    <vehicle id="60" depart="60.00" departLane="best" departPos="random_free" departSpeed="max">
        <route edges="C0B0 B0A0 A0A1 A1A2 A2A3"/>
    </vehicle>
    <vehicle id="61" depart="61.00" departLane="best" departPos="random_free" departSpeed="max">
        <route edges="C0D0 D0D1 D1D2 D2D3 D3C3 C3B3 B3B2"/>
    </vehicle>
    <vehicle id="62" depart="62.00" departLane="best" departPos="random_free" departSpeed="max">
        <route edges="C0D0 D0D1 D1D2 D2D3 D3C3 C3B3 B3B2"/>
    </vehicle>
    <vehicle id="63" depart="63.00" departLane="best" departPos="random_free" departSpeed="max">
        <route edges="D1D2 D2C2 C2B2 B2C2"/>
    </vehicle>
    <vehicle id="64" depart="64.00" departLane="best" departPos="random_free" departSpeed="max">
        <route edges="A3A2 A2A3 A3B3 B3C3 C3B3"/>
    </vehicle>
    <vehicle id="65" depart="65.00" departLane="best" departPos="random_free" departSpeed="max">
        <route edges="A2A3 A3B3 B3B2 B2A2 A2A1 A1A0"/>
    </vehicle>
    <vehicle id="66" depart="66.00" departLane="best" departPos="random_free" departSpeed="max">
        <route edges="C0D0 D0D1 D1D2 D2D3 D3C3 C3D3"/>
    </vehicle>
    <vehicle id="67" depart="67.00" departLane="best" departPos="random_free" departSpeed="max">
        <route edges="B3B2 B2C2 C2D2 D2D3"/>
    </vehicle>
    <vehicle id="68" depart="68.00" departLane="best" departPos="random_free" departSpeed="max">
        <route edges="D3D2 D2D1 D1D0 D0C0 C0D0"/>
    </vehicle>
    <vehicle id="69" depart="69.00" departLane="best" departPos="random_free" departSpeed="max">
        <route edges="C1B1 B1B2 B2B3 B3C3 C3B3"/>
    </vehicle>
    <vehicle id="70" depart="70.00" departLane="best" departPos="random_free" departSpeed="max">
        <route edges="B2C2 C2C1 C1C0"/>
    </vehicle>
    <vehicle id="71" depart="71.00" departLane="best" departPos="random_free" departSpeed="max">
        <route edges="B1C1 C1C2 C2C3 C3D3"/>
    </vehicle>
    <vehicle id="72" depart="72.00" departLane="best" departPos="random_free" departSpeed="max">
        <route edges="B0B1 B1B2 B2B3 B3A3 A3A2"/>
    </vehicle>
    <vehicle id="73" depart="73.00" departLane="best" departPos="random_free" departSpeed="max">
        <route edges="A0A1 A1A2 A2B2 B2C2"/>
    </vehicle>
    <vehicle id="74" depart="74.00" departLane="best" departPos="random_free" departSpeed="max">
        <route edges="B3A3 A3A2 A2A3 A3B3 B3C3 C3D3"/>
    </vehicle>
    <vehicle id="75" depart="75.00" departLane="best" departPos="random_free" departSpeed="max">
        <route edges="C2B2 B2B1 B1C1 C1D1"/>
    </vehicle>
    <vehicle id="76" depart="76.00" departLane="best" departPos="random_free" departSpeed="max">
        <route edges="D1D0 D0C0 C0C1 C1C2 C2C3 C3D3"/>
    </vehicle>
    <vehicle id="77" depart="77.00" departLane="best" departPos="random_free" departSpeed="max">
        <route edges="B3B2 B2C2 C2D2 D2D3"/>
    </vehicle>
    <vehicle id="78" depart="78.00" departLane="best" departPos="random_free" departSpeed="max">
        <route edges="B3B2 B2C2 C2C3"/>
    </vehicle>
    <vehicle id="79" depart="79.00" departLane="best" departPos="random_free" departSpeed="max">
        <route edges="B1C1 C1B1 B1A1"/>
    </vehicle>
    <vehicle id="80" depart="80.00" departLane="best" departPos="random_free" departSpeed="max">
        <route edges="B2C2 C2B2 B2A2 A2A3 A3B3"/>
    </vehicle>
    <vehicle id="81" depart="81.00" departLane="best" departPos="random_free" departSpeed="max">
        <route edges="C0D0 D0D1 D1C1 C1B1 B1A1 A1A0 A0B0"/>
    </vehicle>
    <vehicle id="82" depart="82.00" departLane="best" departPos="random_free" departSpeed="max">
        <route edges="C3B3 B3A3 A3A2 A2B2"/>
    </vehicle>
    <vehicle id="83" depart="83.00" departLane="best" departPos="random_free" departSpeed="max">
        <route edges="A1A2 A2A1"/>
    </vehicle>
    <vehicle id="84" depart="84.00" departLane="best" departPos="random_free" departSpeed="max">
        <route edges="A0B0 B0C0 C0C1 C1C2"/>
    </vehicle>
    <vehicle id="85" depart="85.00" departLane="best" departPos="random_free" departSpeed="max">
        <route edges="B2A2 A2A1 A1A0 A0B0"/>
    </vehicle>
    <vehicle id="86" depart="86.00" departLane="best" departPos="random_free" departSpeed="max">
        <route edges="A1A2 A2B2 B2B1 B1C1"/>
    </vehicle>
    <vehicle id="87" depart="87.00" departLane="best" departPos="random_free" departSpeed="max">
        <route edges="C0D0 D0D1 D1D0 D0C0 C0B0 B0C0"/>
    </vehicle>
    <vehicle id="88" depart="88.00" departLane="best" departPos="random_free" departSpeed="max">
        <route edges="A0B0 B0B1 B1B2 B2B3 B3C3"/>
    </vehicle>
    <vehicle id="89" depart="89.00" departLane="best" departPos="random_free" departSpeed="max">
        <route edges="D1D2 D2D1 D1D0 D0C0 C0B0 B0B1"/>
    </vehicle>
    <vehicle id="90" depart="90.00" departLane="best" departPos="random_free" departSpeed="max">
        <route edges="A0B0 B0C0 C0B0"/>
    </vehicle>
    <vehicle id="91" depart="91.00" departLane="best" departPos="random_free" departSpeed="max">
        <route edges="B0A0 A0A1 A1A2 A2B2 B2B1"/>
    </vehicle>
    <vehicle id="92" depart="92.00" departLane="best" departPos="random_free" departSpeed="max">
        <route edges="B1B2 B2B3 B3B2"/>
    </vehicle>
    <vehicle id="93" depart="93.00" departLane="best" departPos="random_free" departSpeed="max">
        <route edges="C2C3 C3D3 D3D2 D2D1"/>
    </vehicle>
    <vehicle id="94" depart="94.00" departLane="best" departPos="random_free" departSpeed="max">
        <route edges="A0A1 A1B1 B1A1"/>
    </vehicle>
    <vehicle id="95" depart="95.00" departLane="best" departPos="random_free" departSpeed="max">
        <route edges="A1A2 A2B2 B2B1 B1A1"/>
    </vehicle>
    <vehicle id="96" depart="96.00" departLane="best" departPos="random_free" departSpeed="max">
        <route edges="C3C2 C2B2 B2B3"/>
    </vehicle>
    <vehicle id="97" depart="97.00" departLane="best" departPos="random_free" departSpeed="max">
        <route edges="B1A1 A1A2"/>
    </vehicle>
</routes>
