<?xml version="1.0" encoding="UTF-8"?>

<!-- generated on Sat Jun  6 22:43:24 2020 by Eclipse SUMO duarouter Version 1.5.0
<configuration xmlns:xsi="http://www.w3.org/2001/XMLSchema-instance" xsi:noNamespaceSchemaLocation="http://sumo.dlr.de/xsd/duarouterConfiguration.xsd">

    <input>
        <net-file value="map.net.xml"/>
        <route-files value="trip.trips.xml"/>
    </input>

    <output>
        <output-file value="route.rou.xml"/>
        <alternatives-output value="route.rou.alt.xml"/>
    </output>

    <processing>
        <repair value="true"/>
    </processing>

    <report>
        <ignore-errors value="true"/>
    </report>

</configuration>
-->

<routes xmlns:xsi="http://www.w3.org/2001/XMLSchema-instance" xsi:noNamespaceSchemaLocation="http://sumo.dlr.de/xsd/routes_file.xsd">
    <vehicle id="0" depart="0.00" departLane="best" departPos="random_free" departSpeed="max">
        <route edges="475190702#0 319477708 687425623#2 687425623#3 475190703#0 475190703#1 319477713 70372816#1 70372816#2 70372816#3 156236250#0 156236250#1 319492694"/>
    </vehicle>
    <vehicle id="1" depart="1.00" departLane="best" departPos="random_free" departSpeed="max">
        <route edges="475190702#0 475190702#1 475190702#2 475190702#3 448478732#0 448478732#1 448478732#2 319492687"/>
    </vehicle>
    <vehicle id="2" depart="2.00" departLane="best" departPos="random_free" departSpeed="max">
        <route edges="319492681 -156236776#5 -319492687 448478732#3 -156236332"/>
    </vehicle>
    <vehicle id="3" depart="3.00" departLane="best" departPos="random_free" departSpeed="max">
        <route edges="-319492670 156236304#1 156236304#2 156236304#3 156236304#4 156236304#5 156236304#6 156236304#7 -156236776#1 156236776#1"/>
    </vehicle>
    <vehicle id="4" depart="4.00" departLane="best" departPos="random_free" departSpeed="max">
        <route edges="-319492670 319492670 -156237037#2 -156237037#1 -449625227 156236802#0 -156236802#0"/>
    </vehicle>
    <vehicle id="6" depart="6.00" departLane="best" departPos="random_free" departSpeed="max">
        <route edges="319492701#4 319492701#5 319492701#6 319492692#0 -319492692#0"/>
    </vehicle>
    <vehicle id="7" depart="7.00" departLane="best" departPos="random_free" departSpeed="max">
        <route edges="-319492689 -156236304#5 -156236304#4 -156236304#3 -156236304#2 -156236304#1 -156236304#0 319492701#11 -687601999 -156236298"/>
    </vehicle>
    <vehicle id="8" depart="8.00" departLane="best" departPos="random_free" departSpeed="max">
        <route edges="-653737377#2 156235857 726057965 687601998 319492701#13 -156237037#4 -156237037#3 -156237037#2 -156237037#1 -156237037#0 -156235667#4 -156235667#3 156236776#0 156235942#2"/>
    </vehicle>
    <vehicle id="9" depart="9.00" departLane="best" departPos="random_free" departSpeed="max">
        <route edges="319492667 -687601992 -449625221 156237037#4 -319492701#13 -319492701#12 -319492701#11 -319492701#10 -319492701#9 -319492701#8 -319492701#7 -319492701#6 583863705 -156236250#5 -156236250#4 -156236570"/>
    </vehicle>
    <vehicle id="10" depart="10.00" departLane="best" departPos="random_free" departSpeed="max">
        <route edges="156236250#0 -156236250#0 70372816#4 475190702#0 319477708 687425623#2 687425623#3 156236866#0 156236866#1 319645334#0"/>
    </vehicle>
    <vehicle id="11" depart="11.00" departLane="best" departPos="random_free" departSpeed="max">
        <route edges="319492667 -687601992 583863704 449625227 156237037#1 156237037#2"/>
    </vehicle>
    <vehicle id="12" depart="12.00" departLane="best" departPos="random_free" departSpeed="max">
        <route edges="319492692#0 -319492692#0 -319492701#6 583863705 -156236250#5 -156236250#4 -156236570 156236570"/>
    </vehicle>
    <vehicle id="13" depart="13.00" departLane="best" departPos="random_free" departSpeed="max">
        <route edges="-156236250#7 156236250#7 156236250#8 156236250#9 -726057965"/>
    </vehicle>
    <vehicle id="14" depart="14.00" departLane="best" departPos="random_free" departSpeed="max">
        <route edges="-156236551#0 156236996#0 156236996#1 156236996#2 449625227 -156237037#0 -156235667#4 -156235667#3 156236776#0 156235942#2"/>
    </vehicle>
    <vehicle id="15" depart="15.00" departLane="best" departPos="random_free" departSpeed="max">
        <route edges="319492679 -319492701#2 -319492701#1 471329626 319492694 156236634#10 755111831 70372816#2 70372816#3"/>
    </vehicle>
    <vehicle id="16" depart="16.00" departLane="best" departPos="random_free" departSpeed="max">
        <route edges="687425623#3 475190703#0 475190703#1 319477713 70372816#1 70372816#2 70372816#3 156236250#0 156236250#1 156236250#2 156236250#3 156236250#4 156236250#5 156236250#6 156236250#7 -156236250#7"/>
    </vehicle>
    <vehicle id="18" depart="18.00" departLane="best" departPos="random_free" departSpeed="max">
        <route edges="-156236962 -156236634#2 -156236634#1 726057965"/>
    </vehicle>
    <vehicle id="19" depart="19.00" departLane="best" departPos="random_free" departSpeed="max">
        <route edges="726057965 687601998 319492701#13 -156237037#4 -156237037#3 -156237037#2 -156237037#1 -449625227 156236802#0 -156236802#0"/>
    </vehicle>
    <vehicle id="20" depart="20.00" departLane="best" departPos="random_free" departSpeed="max">
        <route edges="156236273#0 156236273#1 156236304#5 319492689 319492692#3 156236776#4 156236776#5 156236776#6 156236776#7 156236776#8 156236776#9 475190702#2"/>
    </vehicle>
    <vehicle id="21" depart="21.00" departLane="best" departPos="random_free" departSpeed="max">
        <route edges="-653737377#0 70372816#0 70372816#1 70372816#2 70372816#3 70372816#4 475190702#0 475190702#1 -156236776#9 -156236776#8 -156236776#7 -156236776#6 -156236776#5 -156236776#4 -319492692#3 -319492692#2"/>
    </vehicle>
    <vehicle id="22" depart="22.00" departLane="best" departPos="random_free" departSpeed="max">
        <route edges="319492694 -319492694 156236250#2 156236250#3 156236250#4 156236250#5 156236250#6 156236250#7 156236250#8 156236250#9 -726057965 -156235857 156235857"/>
    </vehicle>
    <vehicle id="23" depart="23.00" departLane="best" departPos="random_free" departSpeed="max">
        <route edges="319492699 319492701#4 319492701#5 319492701#6 319492701#7 319492701#8 319492701#9 319492701#10 319492701#11 319492701#12 319492701#13 -156237037#4 -156237037#3 -156237037#2 -156237037#1 -449625227 156236802#0 -156236802#0"/>
    </vehicle>
    <vehicle id="24" depart="24.00" departLane="best" departPos="random_free" departSpeed="max">
        <route edges="-319492699 -156236776#5 -156236776#4 -319492692#3 -319492692#2 -319492669 -156236304#3 -156236304#2 -156236304#1 319492670 -319492670"/>
    </vehicle>
    <vehicle id="25" depart="25.00" departLane="best" departPos="random_free" departSpeed="max">
        <route edges="-319645334#0 -156236866#1 -156236866#0 475190703#0 475190703#1 319477713 70372816#1 70372816#2 70372816#3 156236250#0 156236250#1 156236250#2 156236250#3 156236250#4 156236250#5 156236250#6 156236250#7 156236250#8 156236250#9 -726057965"/>
    </vehicle>
    <vehicle id="26" depart="26.00" departLane="best" departPos="random_free" departSpeed="max">
        <route edges="-687601992 -449625221 156237037#4 -319492701#13 -319492701#12 -319492701#11 -319492701#10 -319492701#9 -319492701#8 -319492701#7 -319492701#6 -319492701#5 -319492701#4 -319492701#3 -319492701#2 -319492701#1 -319492701#0 475190702#0 319477708 687425623#2 687425623#3 156236866#0"/>
    </vehicle>
    <vehicle id="29" depart="29.00" departLane="best" departPos="random_free" departSpeed="max">
        <route edges="-653737377#2 -653737377#1 653737377#1"/>
    </vehicle>
    <vehicle id="30" depart="30.00" departLane="best" departPos="random_free" departSpeed="max">
        <route edges="583863704 449625227 -156237037#0 156236273#0 156236273#1 156236304#5 319492689 319492692#3"/>
    </vehicle>
    <vehicle id="31" depart="31.00" departLane="best" departPos="random_free" departSpeed="max">
        <route edges="319492670 -319492670 -156236304#0"/>
    </vehicle>
    <vehicle id="32" depart="32.00" departLane="best" departPos="random_free" departSpeed="max">
        <route edges="156236258 448478732#5 448478732#6 448478732#7 -156235942#4 -156235942#3 319492673#1"/>
    </vehicle>
    <vehicle id="33" depart="33.00" departLane="best" departPos="random_free" departSpeed="max">
        <route edges="687425623#1 687425623#2 687425623#3 475190703#0 475190703#1 319477713 70372816#1 70372816#2 70372816#3 70372816#4 319492701#0 319492701#1 319492701#2 319492701#3 319492701#4 319492701#5 319492701#6 319492701#7 319492701#8 319492701#9 319492701#10 156236304#0 156236304#1 156236304#2 156236304#3 156236304#4 156236304#5 319492689"/>
    </vehicle>
    <vehicle id="35" depart="35.00" departLane="best" departPos="random_free" departSpeed="max">
        <route edges="-319633171 -687601992 -449625221 156237037#4 -319492701#13 -319492701#12 -319492701#11 -319492701#10 -319492701#9 -319492701#8 -156236574 156236250#7"/>
    </vehicle>
    <vehicle id="36" depart="36.00" departLane="best" departPos="random_free" departSpeed="max">
        <route edges="156236776#0 156236776#1 156236776#2 156236776#3 156236776#4 156236776#5 156236776#6 156236776#7 319492682 448478732#1"/>
    </vehicle>
    <vehicle id="37" depart="37.00" departLane="best" departPos="random_free" departSpeed="max">
        <route edges="-156236250#4 -156236570 156236634#8 156236634#9"/>
    </vehicle>
    <vehicle id="38" depart="38.00" departLane="best" departPos="random_free" departSpeed="max">
        <route edges="-319492692#2 319492692#2 319492692#3 156236332 448478732#4 -156236258"/>
    </vehicle>
    <vehicle id="39" depart="39.00" departLane="best" departPos="random_free" departSpeed="max">
        <route edges="156236980 -156236776#8 319492682 448478732#1 448478732#2 448478732#3 448478732#4 448478732#5 448478732#6 448478732#7 448478732#8 448478734 -156236802#1"/>
    </vehicle>
    <vehicle id="40" depart="40.00" departLane="best" departPos="random_free" departSpeed="max">
        <route edges="-156236288 319492701#5 319492701#6 319492701#7 319492701#8 319492701#9 319492701#10 156236304#0 156236304#1 156236304#2 156236304#3 156236304#4 156236304#5 156236304#6 319492698#0"/>
    </vehicle>
    <vehicle id="41" depart="41.00" departLane="best" departPos="random_free" departSpeed="max">
        <route edges="583842691 -156236551#1 -156236551#0 156236996#0 156236996#1 156236996#2 449625227 156237037#1 156237037#2 156237037#3 156237037#4 -319492701#13 -319492701#12 -687601999 156236250#9 -726057965 -156236634#0"/>
    </vehicle>
    <vehicle id="43" depart="43.00" departLane="best" departPos="random_free" departSpeed="max">
        <route edges="156236866#0 -156236866#0 475190703#0 475190703#1 319477713 70372816#1 70372816#2 70372816#3 70372816#4 475190702#0 319477708 687425623#2 687425623#3"/>
    </vehicle>
    <vehicle id="44" depart="44.00" departLane="best" departPos="random_free" departSpeed="max">
        <route edges="319645334#0 319645334#1 -156236845 475190703#1 319477713 70372816#1 70372816#2 70372816#3 156236250#0 156236250#1 156236250#2 156236250#3 156236250#4 156236250#5 156236250#6 156236250#7 156236250#8 156236250#9 -726057965 -156235857 -653737377#1"/>
    </vehicle>
    <vehicle id="46" depart="46.00" departLane="best" departPos="random_free" departSpeed="max">
        <route edges="-156236298 156236298 687601999 319492701#12 319492701#13 -156237037#4 -156237037#3 -156237037#2 -156237037#1 -156237037#0 -156235667#4"/>
    </vehicle>
    <vehicle id="47" depart="47.00" departLane="best" departPos="random_free" departSpeed="max">
        <route edges="156235667#4 156237037#0 156237037#1 156237037#2 156237037#3 156237037#4 -319492701#13 -319492701#12 -687601999 156236250#9 687601998"/>
    </vehicle>
    <vehicle id="48" depart="48.00" departLane="best" departPos="random_free" departSpeed="max">
        <route edges="-653737377#1"/>
    </vehicle>
    <vehicle id="49" depart="49.00" departLane="best" departPos="random_free" departSpeed="max">
        <route edges="156236298 687601999 -319492701#11 -319492701#10 -319492701#9 -319492701#8 -319492701#7 319492692#0 319492692#1 319492692#2 319492692#3 156236332"/>
    </vehicle>
    <vehicle id="50" depart="50.00" departLane="best" departPos="random_free" departSpeed="max">
        <route edges="156236866#1 319645334#0 319645334#1 -156236845 475190703#1 319477713 70372816#1 70372816#2 70372816#3 156236250#0 156236250#1 156236250#2 156236250#3 156236250#4 156236250#5 156236250#6 156236250#7 156236250#8 -156236298 156236298"/>
    </vehicle>
    <vehicle id="51" depart="51.00" departLane="best" departPos="random_free" departSpeed="max">
        <route edges="156236220#2 448478732#7 -156235942#4 -156235942#3 -156235942#2 156236776#1 -156236304#7 -156236304#6 -156236304#5 -156236304#4 -156236304#3 -449625225"/>
    </vehicle>
    <vehicle id="52" depart="52.00" departLane="best" departPos="random_free" departSpeed="max">
        <route edges="-156236802#1 -156236802#0 449625227 156237037#1 156237037#2 156237037#3 156237037#4 -319492701#13 -319492701#12 -319492701#11 -319492701#10 -319492701#9 -319492701#8 -319492701#7 -319492701#6 -319492701#5 -319492701#4 -319492701#3 -319492701#2 -319492701#1 -319492701#0 319492701#0"/>
    </vehicle>
    <vehicle id="53" depart="53.00" departLane="best" departPos="random_free" departSpeed="max">
        <route edges="156236980 -156236776#8 -156236776#7 -156236776#6 319492699"/>
    </vehicle>
    <vehicle id="55" depart="55.00" departLane="best" departPos="random_free" departSpeed="max">
        <route edges="-156236288 156236288 -319492687 448478732#3 448478732#4 448478732#5 448478732#6 448478732#7 448478732#8 448478734 755367130 -156236551#3"/>
    </vehicle>
    <vehicle id="56" depart="56.00" departLane="best" departPos="random_free" departSpeed="max">
        <route edges="-156236250#3 156236250#3 156236250#4 156236250#5 156236250#6 156236574 -156236574"/>
    </vehicle>
    <vehicle id="57" depart="57.00" departLane="best" departPos="random_free" departSpeed="max">
        <route edges="475190702#2 475190702#3 448478732#0 448478732#1 448478732#2 448478732#3 -156236332 -319492692#3 -319492692#2 -319492692#1 -319492692#0 319492701#7 -156236574 156236250#7 156236250#8 156236250#9 -726057965 -156235857 -653737377#1"/>
    </vehicle>
    <vehicle id="58" depart="58.00" departLane="best" departPos="random_free" departSpeed="max">
        <route edges="-156236551#0 156236996#0 156236996#1 156236996#2 156236802#0"/>
    </vehicle>
    <vehicle id="59" depart="59.00" departLane="best" departPos="random_free" departSpeed="max">
        <route edges="-156236551#0 156236996#0 156236996#1 156236996#2 449625227 156237037#1 156237037#2 156237037#3"/>
    </vehicle>
    <vehicle id="60" depart="60.00" departLane="best" departPos="random_free" departSpeed="max">
        <route edges="-156236776#2 -156236776#1 -156236776#0 156235667#3 156235667#4 156237037#0 -449625227 -156236996#2 -156236996#1 -156236996#0 156236551#0"/>
    </vehicle>
    <vehicle id="61" depart="61.00" departLane="best" departPos="random_free" departSpeed="max">
        <route edges="156235667#1 156235667#2 156236776#0 156236776#1 156236776#2 156236776#3 156236776#4 156236776#5 156236776#6 156236776#7 156236776#8 156236776#9 475190702#2 475190702#3 448478732#0"/>
    </vehicle>
    <vehicle id="62" depart="62.00" departLane="best" departPos="random_free" departSpeed="max">
        <route edges="-319633174 156236996#1 156236996#2 449625227 156237037#1 156237037#2 156237037#3 156237037#4 -319492701#13 -319492701#12 -319492701#11 -319492701#10 -319492701#9 -319492701#8 -319492701#7 -319492701#6 -319492701#5 -319492701#4 -319492699"/>
    </vehicle>
    <vehicle id="63" depart="63.00" departLane="best" departPos="random_free" departSpeed="max">
        <route edges="-156236304#3 -156236304#2 -156236304#1 -156236304#0 -319492701#10 -319492701#9 -319492701#8 -319492701#7 -319492701#6 -319492701#5 -319492701#4 -319492701#3 -319492701#2 -319492701#1 -319492701#0 475190702#0 319477708 687425623#2 687425623#3 475190703#0 156236845 -319645334#1 -319645334#0"/>
    </vehicle>
    <vehicle id="64" depart="64.00" departLane="best" departPos="random_free" departSpeed="max">
        <route edges="-156235942#0 156235942#0 156235942#1 156236776#1 156236776#2 156236776#3 156236776#4 -156236288"/>
    </vehicle>
    <vehicle id="65" depart="65.00" departLane="best" departPos="random_free" departSpeed="max">
        <route edges="-156235802 -156236866#0 475190703#0 475190703#1 319477713 70372816#1 70372816#2 70372816#3 156236250#0 156236250#1 156236250#2 156236250#3 156236250#4 156236250#5 156236250#6 156236250#7 156236250#8 -156236298 156236298"/>
    </vehicle>
    <vehicle id="66" depart="66.00" departLane="best" departPos="random_free" departSpeed="max">
        <route edges="319492682 448478732#1 448478732#2 448478732#3 -156236332 -319492692#3 -319492692#2 -319492692#1 -319492692#0 319492701#7 319492701#8 319492701#9 319492701#10 319492701#11 319492701#12"/>
    </vehicle>
    <vehicle id="67" depart="67.00" departLane="best" departPos="random_free" departSpeed="max">
        <route edges="156236332 -156236332 -319492692#3 -319492692#2 -319492692#1 -319492692#0 -319492701#6 -319492701#5 -319492701#4 -319492701#3 -319492701#2 -319492701#1 -319492701#0 475190702#0 319477708 687425623#2 687425623#3"/>
    </vehicle>
    <vehicle id="68" depart="68.00" departLane="best" departPos="random_free" departSpeed="max">
        <route edges="-156236570 156236570 319492666 319492701#4 319492701#5 319492701#6 319492701#7 319492701#8 319492701#9 319492701#10 156236304#0 156236304#1 156236304#2 156236304#3 156236304#4 -156236273#1"/>
    </vehicle>
    <vehicle id="69" depart="69.00" departLane="best" departPos="random_free" departSpeed="max">
        <route edges="653737377#1 156235857 726057965 -156236250#9 156236250#9"/>
    </vehicle>
    <vehicle id="70" depart="70.00" departLane="best" departPos="random_free" departSpeed="max">
        <route edges="-156236288 156236288 -319492687 448478732#3 448478732#4 448478732#5 448478732#6 448478732#7 448478732#8 448478734 -156236802#1"/>
    </vehicle>
    <vehicle id="71" depart="71.00" departLane="best" departPos="random_free" departSpeed="max">
        <route edges="70372816#2 70372816#3 156236250#0 156236250#1 156236250#2 156236250#3 156236250#4 156236250#5 156236250#6 156236250#7 156236250#8 156236250#9 -726057965 -156236634#0"/>
    </vehicle>
    <vehicle id="72" depart="72.00" departLane="best" departPos="random_free" departSpeed="max">
        <route edges="319492699 319492701#4 319492701#5 319492701#6 319492701#7 319492701#8 319492701#9 319492701#10 319492701#11 319492701#12 319492701#13 -156237037#4 449625221 -156236148#1 -319633174 156236996#1 156236996#2"/>
    </vehicle>
    <vehicle id="73" depart="73.00" departLane="best" departPos="random_free" departSpeed="max">
        <route edges="156235667#4 156236273#0 156236273#1 -156236304#4 -156236304#3"/>
    </vehicle>
    <vehicle id="74" depart="74.00" departLane="best" departPos="random_free" departSpeed="max">
        <route edges="156236634#0 726057965 -156236250#9 -156236250#8 -156236250#7 -156236250#6 -156236250#5 -156236250#4 -156236250#3 -156236250#2 -156236250#1 -156236250#0 70372816#4 475190702#0 319477708 687425623#2 687425623#3 156236866#0 156236866#1 319645334#0 319645334#1 -156236845"/>
    </vehicle>
    <vehicle id="75" depart="75.00" departLane="best" departPos="random_free" departSpeed="max">
        <route edges="156236776#0 156236776#1 -156236304#7 -156236304#6 -156236304#5 -156236304#4 -156236304#3 -156236304#2 -156236304#1 -156236304#0 -319492701#10 -319492701#9 -319492701#8 -319492701#7 -319492701#6 -319492701#5 -319492701#4 -319492701#3 -319492701#2 -319492701#1 -319492701#0 475190702#0 319477708 687425623#2 687425623#3 475190703#0"/>
    </vehicle>
    <vehicle id="76" depart="76.00" departLane="best" departPos="random_free" departSpeed="max">
        <route edges="-156237037#3 -156237037#2 449625225 -449625225"/>
    </vehicle>
    <vehicle id="77" depart="77.00" departLane="best" departPos="random_free" departSpeed="max">
        <route edges="-319492701#4 319492701#4 156236288 -156236288"/>
    </vehicle>
    <vehicle id="78" depart="78.00" departLane="best" departPos="random_free" departSpeed="max">
        <route edges="653737377#0 -653737377#0 70372816#0 70372816#1 70372816#2 70372816#3 156236250#0 156236250#1 156236250#2 156236250#3 156236250#4 156236250#5 156236250#6 156236250#7 156236250#8 156236250#9 -156236250#9"/>
    </vehicle>
    <vehicle id="79" depart="79.00" departLane="best" departPos="random_free" departSpeed="max">
        <route edges="687601999 -319492701#11 156236304#0 156236304#1 156236304#2 156236304#3 156236304#4 156236304#5 -156236304#5"/>
    </vehicle>
    <vehicle id="80" depart="80.00" departLane="best" departPos="random_free" departSpeed="max">
        <route edges="-156236288 -319492701#4 -319492701#3 -319492701#2 -319492701#1 -319492701#0 475190702#0 319477708 687425623#2 687425623#3 156236866#0 156236866#1 319645334#0 319645334#1 -156236845"/>
    </vehicle>
    <vehicle id="81" depart="81.00" departLane="best" departPos="random_free" departSpeed="max">
        <route edges="-156235942#2 156236776#1 156236776#2 156236776#3 -319492692#3 -319492692#2 -319492692#1 -319492692#0 319492701#7 319492701#8"/>
    </vehicle>
    <vehicle id="83" depart="83.00" departLane="best" departPos="random_free" departSpeed="max">
        <route edges="-319492692#1 319492692#1 -319492669 156236304#4 -156236273#1"/>
    </vehicle>
    <vehicle id="84" depart="84.00" departLane="best" departPos="random_free" departSpeed="max">
        <route edges="-319492699 156236776#6 156236776#7"/>
    </vehicle>
    <vehicle id="85" depart="85.00" departLane="best" departPos="random_free" departSpeed="max">
        <route edges="583863704 156236802#0 156236802#1 755367130"/>
    </vehicle>
    <vehicle id="86" depart="86.00" departLane="best" departPos="random_free" departSpeed="max">
        <route edges="319492699 319492701#4 319492701#5 319492701#6 319492701#7 -156236574 156236250#7 156236250#8 156236250#9 -726057965 -156235857 -653737377#1 653737377#1"/>
    </vehicle>
    <vehicle id="88" depart="88.00" departLane="best" departPos="random_free" departSpeed="max">
        <route edges="475190702#0 475190702#1 475190702#2 475190702#3 448478732#0 448478732#1 448478732#2 448478732#3 448478732#4 448478732#5 448478732#6 448478732#7 448478732#8 448478734 -156236802#1 -475190696#1 475190696#1"/>
    </vehicle>
    <vehicle id="89" depart="89.00" departLane="best" departPos="random_free" departSpeed="max">
        <route edges="475190702#0 475190702#1 -156236776#9 -156236776#8 -156236776#7 -156236776#6 -156236776#5 -156236288"/>
    </vehicle>
    <vehicle id="90" depart="90.00" departLane="best" departPos="random_free" departSpeed="max">
        <route edges="156236304#7 -156236304#7 -156236304#6 -156236304#5 -156236304#4 -156236304#3 -156236304#2 -156236304#1 -156236304#0 -319492701#10 -319492701#9 -319492701#8 -319492701#7 -319492701#6 -319492701#5 -319492701#4 -319492701#3 -319492701#2 -319492701#1 471329626 319492694 -319492694"/>
    </vehicle>
    <vehicle id="91" depart="91.00" departLane="best" departPos="random_free" departSpeed="max">
        <route edges="-156236570 156236570 -156236250#3 -156236250#2 -156236250#1 -156236250#0 70372816#4 475190702#0"/>
    </vehicle>
    <vehicle id="92" depart="92.00" departLane="best" departPos="random_free" departSpeed="max">
        <route edges="475190702#0 475190702#1 -156236776#9 -156236776#8 -156236776#7 -156236776#6 -156236776#5 -156236776#4 -156236776#3 -156236776#2 -156236776#1 -156235942#1 -319492698#0"/>
    </vehicle>
    <vehicle id="93" depart="93.00" departLane="best" departPos="random_free" departSpeed="max">
        <route edges="156235667#3 -156235667#3 156236776#0 156236776#1 156236776#2 156236776#3 156236776#4 156236776#5 156236776#6"/>
    </vehicle>
    <vehicle id="94" depart="94.00" departLane="best" departPos="random_free" departSpeed="max">
        <route edges="156236304#0 -156236304#0 319492701#11 319492701#12 -319492701#12"/>
    </vehicle>
    <vehicle id="95" depart="95.00" departLane="best" departPos="random_free" departSpeed="max">
        <route edges="-156236776#6 319492699 -319492701#3 -319492701#2 -319492701#1 -319492701#0 475190702#0 319477708 687425623#2 687425623#3"/>
    </vehicle>
    <vehicle id="96" depart="96.00" departLane="best" departPos="random_free" departSpeed="max">
        <route edges="-653737377#2 156235857 726057965 -156236250#9 -156236250#8 -156236250#7 -156236250#6 -156236250#5 -156236250#4 -156236250#3 -156236250#2 -156236250#1 -156236250#0 70372816#4 475190702#0 319477708 687425623#2 687425623#3 475190703#0"/>
    </vehicle>
    <vehicle id="97" depart="97.00" departLane="best" departPos="random_free" departSpeed="max">
        <route edges="156236802#1 -156236802#1 -156236802#0 449625227 -156237037#0 -156235667#4 -156235667#3 -156235667#2 319492673#0 -156235942#2"/>
    </vehicle>
    <vehicle id="98" depart="98.00" departLane="best" departPos="random_free" departSpeed="max">
        <route edges="156236634#6 156236634#7 156236570 -156236250#3 -156236250#2 -156236250#1 -156236250#0 70372816#4 475190702#0 475190702#1 475190702#2 475190702#3 448478732#0 448478732#1 319492681"/>
    </vehicle>
    <vehicle id="100" depart="100.00" departLane="best" departPos="random_free" departSpeed="max">
        <route edges="24884606#1 24884606#2 314715143 448478732#6 448478732#7 -156235942#4 -156235942#3 -156235942#2 156236776#1 156236776#2 156236776#3 -319492692#3 -319492692#2 -319492669"/>
    </vehicle>
    <vehicle id="101" depart="101.00" departLane="best" departPos="random_free" departSpeed="max">
        <route edges="319492701#6 319492701#7 319492701#8 319492701#9 319492701#10 319492701#11 319492701#12 319492701#13 -156237037#4 -156237037#3 -156237037#2 -156237037#1 -449625227 -156236996#2 -156236996#1 -156236996#0 156236551#0 156236551#1 156236551#2"/>
    </vehicle>
    <vehicle id="102" depart="102.00" departLane="best" departPos="random_free" departSpeed="max">
        <route edges="319492694 -319492694 -156236250#1 -156236250#0 70372816#4 475190702#0 319477708 687425623#2 687425623#3 475190703#0 156236845 -319645334#1 -319645334#0 -156236866#1"/>
    </vehicle>
    <vehicle id="103" depart="103.00" departLane="best" departPos="random_free" departSpeed="max">
        <route edges="-156236845 475190703#1 319477713 70372816#1 70372816#2 70372816#3 70372816#4 319492701#0 319492701#1 319492701#2 319492701#3 319492701#4 319492701#5 319492701#6 319492701#7 319492701#8 319492701#9 319492701#10 156236304#0 156236304#1 156236304#2 156236304#3 156236304#4 -156236273#1 156236273#1"/>
    </vehicle>
    <vehicle id="104" depart="104.00" departLane="best" departPos="random_free" departSpeed="max">
        <route edges="-319645334#0 -156236866#1 -156236866#0 475190703#0 475190703#1 319477713 70372816#1 70372816#2 70372816#3 70372816#4 319492701#0 319492701#1 319492701#2 319492701#3 -319492699"/>
    </vehicle>
    <vehicle id="105" depart="105.00" departLane="best" departPos="random_free" departSpeed="max">
        <route edges="-156236634#0 156236634#0 726057965 687601998 319492701#13 -156237037#4 -156237037#3 -156237037#2 -156237037#1 -156237037#0 -156235667#4 -156235667#3 156236776#0 156236776#1 156236776#2 156236258 -156236258"/>
    </vehicle>
    <vehicle id="106" depart="106.00" departLane="best" departPos="random_free" departSpeed="max">
        <route edges="471329626 -471329626 319492701#1 319492701#2 319492701#3 319492701#4 319492701#5 319492701#6 319492701#7 319492701#8 319492701#9 319492701#10 319492701#11 319492701#12 319492701#13 -156237037#4 -156237037#3 -319492670"/>
    </vehicle>
    <vehicle id="107" depart="107.00" departLane="best" departPos="random_free" departSpeed="max">
        <route edges="319492699"/>
    </vehicle>
    <vehicle id="108" depart="108.00" departLane="best" departPos="random_free" departSpeed="max">
        <route edges="156236288 -156236776#4 -156236776#3 -156236776#2 156236220#0 156236220#1 156236220#2"/>
    </vehicle>
    <vehicle id="109" depart="109.00" departLane="best" departPos="random_free" departSpeed="max">
        <route edges="156236634#2 156236962 -156236250#7 -156236250#6 -156236250#5 -156236250#4 -156236250#3 -156236250#2 319492694"/>
    </vehicle>
    <vehicle id="110" depart="110.00" departLane="best" departPos="random_free" departSpeed="max">
        <route edges="-319492698#0 -156236304#6 -156236304#5 -156236304#4 -156236304#3 -156236304#2 -156236304#1 -156236304#0 -319492701#10 -319492701#9 -319492701#8 -319492701#7 -319492701#6 -319492701#5 -319492701#4 -319492701#3 -319492701#2 -319492701#1 -319492701#0 475190702#0 319477708 687425623#2 687425623#3 475190703#0 156236845 -319645334#1"/>
    </vehicle>
    <vehicle id="111" depart="111.00" departLane="best" departPos="random_free" departSpeed="max">
        <route edges="-156236288 319492701#5 319492701#6 319492701#7 319492701#8 319492701#9 319492701#10 319492701#11 -687601999 -156236298 156236298"/>
    </vehicle>
    <vehicle id="112" depart="112.00" departLane="best" departPos="random_free" departSpeed="max">
        <route edges="-156235942#3 156235942#3 156235942#4 448478732#8"/>
    </vehicle>
    <vehicle id="113" depart="113.00" departLane="best" departPos="random_free" departSpeed="max">
        <route edges="156236980 -156236776#8 -156236776#7 -156236776#6 -156236776#5 -319492687"/>
    </vehicle>
    <vehicle id="114" depart="114.00" departLane="best" departPos="random_free" departSpeed="max">
        <route edges="-156235857 -653737377#1 653737377#1"/>
    </vehicle>