<?xml version="1.0" encoding="UTF-8"?>

<!-- generated on Sat May 23 03:33:49 2020 by Eclipse SUMO netconvert Version 1.4.0
<configuration xmlns:xsi="http://www.w3.org/2001/XMLSchema-instance" xsi:noNamespaceSchemaLocation="http://sumo.dlr.de/xsd/netconvertConfiguration.xsd">

    <input>
        <osm-files value="/home/irham/Downloads/map.osm"/>
    </input>

    <output>
        <output-file value="map.net.xml"/>
    </output>

    <projection>
        <proj.utm value="true"/>
    </projection>

    <report>
        <aggregate-warnings value="5"/>
    </report>

</configuration>
-->

<net version="1.3" junctionCornerDetail="5" limitTurnSpeed="5.50" xmlns:xsi="http://www.w3.org/2001/XMLSchema-instance" xsi:noNamespaceSchemaLocation="http://sumo.dlr.de/xsd/net_file.xsd">

    <location netOffset="-693236.50,804926.62" convBoundary="0.00,0.00,692.50,617.02" origBoundary="112.750311,-7.278633,112.756571,-7.273052" projParameter="+proj=utm +zone=49 +ellps=WGS84 +datum=WGS84 +units=m +no_defs"/>

    <type id="highway.bridleway" priority="1" numLanes="1" speed="2.78" allow="pedestrian" oneway="1" width="2.00"/>
    <type id="highway.bus_guideway" priority="1" numLanes="1" speed="27.78" allow="bus" oneway="1"/>
    <type id="highway.cycleway" priority="1" numLanes="1" speed="8.33" allow="bicycle" oneway="0" width="1.00"/>
    <type id="highway.footway" priority="1" numLanes="1" speed="2.78" allow="pedestrian" oneway="1" width="2.00"/>
    <type id="highway.ford" priority="1" numLanes="1" speed="2.78" allow="army" oneway="0"/>
    <type id="highway.living_street" priority="2" numLanes="1" speed="2.78" disallow="tram rail_urban rail rail_electric rail_fast ship" oneway="0"/>
    <type id="highway.motorway" priority="14" numLanes="2" speed="39.44" allow="private emergency authority army vip passenger hov taxi bus coach delivery truck trailer motorcycle evehicle custom1 custom2" oneway="1"/>
    <type id="highway.motorway_link" priority="9" numLanes="1" speed="22.22" allow="private emergency authority army vip passenger hov taxi bus coach delivery truck trailer motorcycle evehicle custom1 custom2" oneway="1"/>
    <type id="highway.path" priority="1" numLanes="1" speed="2.78" allow="pedestrian bicycle" oneway="1" width="2.00"/>
    <type id="highway.pedestrian" priority="1" numLanes="1" speed="2.78" allow="pedestrian" oneway="1" width="2.00"/>
    <type id="highway.primary" priority="12" numLanes="2" speed="27.78" disallow="tram rail_urban rail rail_electric rail_fast ship" oneway="0"/>
    <type id="highway.primary_link" priority="7" numLanes="1" speed="22.22" disallow="tram rail_urban rail rail_electric rail_fast ship" oneway="0"/>
    <type id="highway.raceway" priority="15" numLanes="2" speed="83.33" allow="vip" oneway="0"/>
    <type id="highway.residential" priority="3" numLanes="1" speed="13.89" disallow="tram rail_urban rail rail_electric rail_fast ship" oneway="0"/>
    <type id="highway.secondary" priority="11" numLanes="1" speed="27.78" disallow="tram rail_urban rail rail_electric rail_fast ship" oneway="0"/>
    <type id="highway.secondary_link" priority="6" numLanes="1" speed="22.22" disallow="tram rail_urban rail rail_electric rail_fast ship" oneway="0"/>
    <type id="highway.service" priority="1" numLanes="1" speed="5.56" allow="pedestrian delivery bicycle" oneway="0"/>
    <type id="highway.stairs" priority="1" numLanes="1" speed="1.39" allow="pedestrian" oneway="1" width="2.00"/>
    <type id="highway.step" priority="1" numLanes="1" speed="1.39" allow="pedestrian" oneway="1" width="2.00"/>
    <type id="highway.steps" priority="1" numLanes="1" speed="1.39" allow="pedestrian" oneway="1" width="2.00"/>
    <type id="highway.tertiary" priority="10" numLanes="1" speed="22.22" disallow="tram rail_urban rail rail_electric rail_fast ship" oneway="0"/>
    <type id="highway.tertiary_link" priority="5" numLanes="1" speed="22.22" disallow="tram rail_urban rail rail_electric rail_fast ship" oneway="0"/>
    <type id="highway.track" priority="1" numLanes="1" speed="5.56" disallow="tram rail_urban rail rail_electric rail_fast ship" oneway="0"/>
    <type id="highway.trunk" priority="13" numLanes="2" speed="27.78" disallow="pedestrian bicycle tram rail_urban rail rail_electric rail_fast ship" oneway="0"/>
    <type id="highway.trunk_link" priority="8" numLanes="1" speed="22.22" disallow="pedestrian bicycle tram rail_urban rail rail_electric rail_fast ship" oneway="0"/>
    <type id="highway.unclassified" priority="4" numLanes="1" speed="13.89" disallow="tram rail_urban rail rail_electric rail_fast ship" oneway="0"/>
    <type id="highway.unsurfaced" priority="1" numLanes="1" speed="8.33" disallow="tram rail_urban rail rail_electric rail_fast ship" oneway="0"/>
    <type id="railway.highspeed" priority="21" numLanes="1" speed="69.44" allow="rail_fast" oneway="1"/>
    <type id="railway.light_rail" priority="19" numLanes="1" speed="27.78" allow="rail_urban" oneway="1"/>
    <type id="railway.preserved" priority="16" numLanes="1" speed="27.78" allow="rail" oneway="1"/>
    <type id="railway.rail" priority="20" numLanes="1" speed="44.44" allow="rail" oneway="1"/>
    <type id="railway.subway" priority="18" numLanes="1" speed="27.78" allow="rail_urban" oneway="1"/>
    <type id="railway.tram" priority="17" numLanes="1" speed="13.89" allow="tram" oneway="1"/>

    <edge id=":1685007024_0" function="internal">
        <lane id=":1685007024_0_0" index="0" disallow="tram rail_urban rail rail_electric rail_fast ship" speed="13.89" length="14.34" shape="536.31,584.77 521.99,585.46"/>
    </edge>
    <edge id=":1685007024_1" function="internal">
        <lane id=":1685007024_1_0" index="0" disallow="tram rail_urban rail rail_electric rail_fast ship" speed="8.17" length="5.77" shape="536.31,584.77 532.52,584.38 530.80,583.44"/>
    </edge>
    <edge id=":1685007024_2" function="internal">
        <lane id=":1685007024_2_0" index="0" disallow="tram rail_urban rail rail_electric rail_fast ship" speed="3.65" length="2.34" shape="536.31,584.77 535.08,584.02 534.65,583.24"/>
    </edge>
    <edge id=":1685007024_9" function="internal">
        <lane id=":1685007024_9_0" index="0" disallow="tram rail_urban rail rail_electric rail_fast ship" speed="8.17" length="8.46" shape="530.80,583.44 529.70,582.83 527.83,580.15 526.93,576.32"/>
    </edge>
    <edge id=":1685007024_10" function="internal">
        <lane id=":1685007024_10_0" index="0" disallow="tram rail_urban rail rail_electric rail_fast ship" speed="3.65" length="2.34" shape="534.65,583.24 535.01,582.42 536.18,581.57"/>
    </edge>
    <edge id=":1685007024_3" function="internal">
        <lane id=":1685007024_3_0" index="0" disallow="tram rail_urban rail rail_electric rail_fast ship" speed="6.71" length="9.27" shape="530.11,576.01 530.70,578.53 531.91,580.30 533.73,581.31 536.18,581.57"/>
    </edge>
    <edge id=":1685007024_4" function="internal">
        <lane id=":1685007024_4_0" index="0" disallow="tram rail_urban rail rail_electric rail_fast ship" speed="7.93" length="14.35" shape="530.11,576.01 529.93,579.96 528.51,582.85 525.86,584.69 521.99,585.46"/>
    </edge>
    <edge id=":1685007024_5" function="internal">
        <lane id=":1685007024_5_0" index="0" disallow="tram rail_urban rail rail_electric rail_fast ship" speed="3.65" length="4.67" shape="530.11,576.01 529.43,577.28 528.67,577.76 527.84,577.44 526.93,576.32"/>
    </edge>
    <edge id=":1685007024_6" function="internal">
        <lane id=":1685007024_6_0" index="0" disallow="tram rail_urban rail rail_electric rail_fast ship" speed="6.42" length="9.04" shape="521.81,582.27 524.25,581.78 525.92,580.62 526.81,578.80 526.93,576.32"/>
    </edge>
    <edge id=":1685007024_7" function="internal">
        <lane id=":1685007024_7_0" index="0" disallow="tram rail_urban rail rail_electric rail_fast ship" speed="13.89" length="14.39" shape="521.81,582.27 536.18,581.57"/>
    </edge>
    <edge id=":1685007024_8" function="internal">
        <lane id=":1685007024_8_0" index="0" disallow="tram rail_urban rail rail_electric rail_fast ship" speed="3.65" length="2.34" shape="521.81,582.27 523.05,583.00 523.50,583.78"/>
    </edge>
    <edge id=":1685007024_11" function="internal">
        <lane id=":1685007024_11_0" index="0" disallow="tram rail_urban rail rail_electric rail_fast ship" speed="3.65" length="2.34" shape="523.50,583.78 523.14,584.60 521.99,585.46"/>
    </edge>
    <edge id=":1685007031_0" function="internal">
        <lane id=":1685007031_0_0" index="0" disallow="tram rail_urban rail rail_electric rail_fast ship" speed="6.12" length="6.74" shape="398.31,589.87 396.54,589.52 395.20,588.71 394.30,587.43 393.83,585.68"/>
    </edge>
    <edge id=":1685007031_1" function="internal">
        <lane id=":1685007031_1_0" index="0" disallow="tram rail_urban rail rail_electric rail_fast ship" speed="3.92" length="2.25" shape="397.01,585.28 397.16,585.86 397.46,586.29 397.91,586.56 398.50,586.68"/>
    </edge>
    <edge id=":1685007045_0" function="internal">
        <lane id=":1685007045_0_0" index="0" disallow="tram rail_urban rail rail_electric rail_fast ship" speed="6.09" length="7.74" shape="662.01,573.26 661.92,576.02 661.42,578.01 660.50,579.23 659.17,579.68"/>
    </edge>
    <edge id=":1685007045_1" function="internal">
        <lane id=":1685007045_1_0" index="0" disallow="tram rail_urban rail rail_electric rail_fast ship" speed="3.65" length="4.67" shape="659.04,576.48 660.27,577.23 660.70,578.01 660.34,578.83 659.17,579.68"/>
    </edge>
    <edge id=":1685007075_0" function="internal">
        <lane id=":1685007075_0_0" index="0" disallow="tram rail_urban rail rail_electric rail_fast ship" speed="7.99" length="14.21" shape="231.44,566.25 231.34,562.35 232.51,559.37 234.96,557.29 238.67,556.12"/>
    </edge>
    <edge id=":1685007075_1" function="internal">
        <lane id=":1685007075_1_0" index="0" disallow="tram rail_urban rail rail_electric rail_fast ship" speed="3.65" length="2.56" shape="231.44,566.25 232.03,564.93 232.75,564.41 232.96,564.47"/>
    </edge>
    <edge id=":1685007075_6" function="internal">
        <lane id=":1685007075_6_0" index="0" disallow="tram rail_urban rail rail_electric rail_fast ship" speed="3.65" length="2.11" shape="232.96,564.47 233.61,564.67 234.60,565.72"/>
    </edge>
    <edge id=":1685007075_2" function="internal">
        <lane id=":1685007075_2_0" index="0" disallow="tram rail_urban rail rail_electric rail_fast ship" speed="6.50" length="9.03" shape="239.19,559.28 236.83,560.02 235.28,561.34 234.53,563.24 234.60,565.72"/>
    </edge>
    <edge id=":1685007075_3" function="internal">
        <lane id=":1685007075_3_0" index="0" disallow="tram rail_urban rail rail_electric rail_fast ship" speed="3.65" length="2.08" shape="239.19,559.28 237.88,558.68 237.50,558.16"/>
    </edge>
    <edge id=":1685007075_7" function="internal">
        <lane id=":1685007075_7_0" index="0" disallow="tram rail_urban rail rail_electric rail_fast ship" speed="3.65" length="2.59" shape="237.50,558.16 237.36,557.96 237.62,557.10 238.67,556.12"/>
    </edge>
    <edge id=":1685007075_4" function="internal">
        <lane id=":1685007075_4_0" index="0" disallow="tram rail_urban rail rail_electric rail_fast ship" speed="8.34" length="14.51" shape="224.72,560.04 228.29,559.20 231.70,558.08 235.11,556.96 238.67,556.12"/>
    </edge>
    <edge id=":1685007075_5" function="internal">
        <lane id=":1685007075_5_0" index="0" disallow="tram rail_urban rail rail_electric rail_fast ship" speed="7.68" length="12.94" shape="224.72,560.04 228.59,559.86 231.53,560.74 233.53,562.70 234.60,565.72"/>
    </edge>
    <edge id=":1685007081_0" function="internal">
        <lane id=":1685007081_0_0" index="0" disallow="tram rail_urban rail rail_electric rail_fast ship" speed="6.51" length="9.08" shape="296.17,555.65 295.44,553.26 294.13,551.68 292.23,550.91 289.75,550.96"/>
    </edge>
    <edge id=":1685007081_1" function="internal">
        <lane id=":1685007081_1_0" index="0" disallow="tram rail_urban rail rail_electric rail_fast ship" speed="13.89" length="14.82" shape="296.17,555.65 295.64,551.97 295.18,548.31 294.81,544.64 294.52,540.93"/>
    </edge>
    <edge id=":1685007081_2" function="internal">
        <lane id=":1685007081_2_0" index="0" disallow="tram rail_urban rail rail_electric rail_fast ship" speed="7.98" length="14.39" shape="296.17,555.65 296.13,551.72 297.38,548.75 299.92,546.73 303.76,545.66"/>
    </edge>
    <edge id=":1685007081_3" function="internal">
        <lane id=":1685007081_3_0" index="0" disallow="tram rail_urban rail rail_electric rail_fast ship" speed="3.65" length="4.67" shape="296.17,555.65 296.78,554.34 297.51,553.83 298.36,554.10 299.33,555.16"/>
    </edge>
    <edge id=":1685007081_4" function="internal">
        <lane id=":1685007081_4_0" index="0" disallow="tram rail_urban rail rail_electric rail_fast ship" speed="6.48" length="9.13" shape="304.17,548.84 301.73,549.51 300.10,550.79 299.31,552.67 299.33,555.16"/>
    </edge>
    <edge id=":1685007081_5" function="internal">
        <lane id=":1685007081_5_0" index="0" disallow="tram rail_urban rail rail_electric rail_fast ship" speed="13.89" length="14.57" shape="304.17,548.84 289.75,550.96"/>
    </edge>
    <edge id=":1685007081_6" function="internal">
        <lane id=":1685007081_6_0" index="0" disallow="tram rail_urban rail rail_electric rail_fast ship" speed="7.89" length="5.77" shape="304.17,548.84 300.18,548.79 298.56,548.05"/>
    </edge>
    <edge id=":1685007081_7" function="internal">
        <lane id=":1685007081_7_0" index="0" disallow="tram rail_urban rail rail_electric rail_fast ship" speed="3.65" length="2.34" shape="304.17,548.84 302.88,548.20 302.38,547.46"/>
    </edge>
    <edge id=":1685007081_16" function="internal">
        <lane id=":1685007081_16_0" index="0" disallow="tram rail_urban rail rail_electric rail_fast ship" speed="7.89" length="8.66" shape="298.56,548.05 297.24,547.45 295.36,544.83 294.52,540.93"/>
    </edge>
    <edge id=":1685007081_17" function="internal">
        <lane id=":1685007081_17_0" index="0" disallow="tram rail_urban rail rail_electric rail_fast ship" speed="3.65" length="2.34" shape="302.38,547.46 302.67,546.61 303.76,545.66"/>
    </edge>
    <edge id=":1685007081_8" function="internal">
        <lane id=":1685007081_8_0" index="0" disallow="tram rail_urban rail rail_electric rail_fast ship" speed="6.38" length="9.04" shape="297.71,540.72 298.24,543.16 299.42,544.80 301.26,545.63 303.76,545.66"/>
    </edge>
    <edge id=":1685007081_9" function="internal">
        <lane id=":1685007081_9_0" index="0" disallow="tram rail_urban rail rail_electric rail_fast ship" speed="13.89" length="14.54" shape="297.71,540.72 298.00,544.38 298.36,547.95 298.80,551.52 299.33,555.16"/>
    </edge>
    <edge id=":1685007081_10" function="internal">
        <lane id=":1685007081_10_0" index="0" disallow="tram rail_urban rail rail_electric rail_fast ship" speed="8.37" length="14.50" shape="297.71,540.72 297.44,544.67 296.03,547.70 293.46,549.79 289.75,550.96"/>
    </edge>
    <edge id=":1685007081_11" function="internal">
        <lane id=":1685007081_11_0" index="0" disallow="tram rail_urban rail rail_electric rail_fast ship" speed="3.65" length="4.67" shape="297.71,540.72 297.00,541.97 296.22,542.42 295.40,542.08 294.52,540.93"/>
    </edge>
    <edge id=":1685007081_12" function="internal">
        <lane id=":1685007081_12_0" index="0" disallow="tram rail_urban rail rail_electric rail_fast ship" speed="6.95" length="9.69" shape="289.24,547.80 291.70,547.02 293.40,545.62 294.34,543.59 294.52,540.93"/>
    </edge>
    <edge id=":1685007081_13" function="internal">
        <lane id=":1685007081_13_0" index="0" disallow="tram rail_urban rail rail_electric rail_fast ship" speed="13.89" length="14.68" shape="289.24,547.80 303.76,545.66"/>
    </edge>
    <edge id=":1685007081_14" function="internal">
        <lane id=":1685007081_14_0" index="0" disallow="tram rail_urban rail rail_electric rail_fast ship" speed="8.00" length="6.10" shape="289.24,547.80 293.14,547.73 295.17,548.55"/>
    </edge>
    <edge id=":1685007081_15" function="internal">
        <lane id=":1685007081_15_0" index="0" disallow="tram rail_urban rail rail_electric rail_fast ship" speed="3.65" length="2.34" shape="289.24,547.80 290.55,548.40 291.07,549.12"/>
    </edge>
    <edge id=":1685007081_18" function="internal">
        <lane id=":1685007081_18_0" index="0" disallow="tram rail_urban rail rail_electric rail_fast ship" speed="8.00" length="8.17" shape="295.17,548.55 296.12,548.93 298.18,551.40 299.33,555.16"/>
    </edge>
    <edge id=":1685007081_19" function="internal">
        <lane id=":1685007081_19_0" index="0" disallow="tram rail_urban rail rail_electric rail_fast ship" speed="3.65" length="2.34" shape="291.07,549.12 290.81,549.98 289.75,550.96"/>
    </edge>
    <edge id=":1685007137_0" function="internal">
        <lane id=":1685007137_0_0" index="0" disallow="tram rail_urban rail rail_electric rail_fast ship" speed="6.49" length="9.08" shape="388.77,543.44 388.13,541.04 386.87,539.44 384.99,538.62 382.49,538.59"/>
    </edge>
    <edge id=":1685007137_1" function="internal">
        <lane id=":1685007137_1_0" index="0" disallow="tram rail_urban rail rail_electric rail_fast ship" speed="13.89" length="14.03" shape="388.77,543.44 386.84,529.54"/>
    </edge>
    <edge id=":1685007137_2" function="internal">
        <lane id=":1685007137_2_0" index="0" disallow="tram rail_urban rail rail_electric rail_fast ship" speed="8.01" length="14.23" shape="388.77,543.44 388.87,539.53 390.19,536.60 392.72,534.63 396.48,533.64"/>
    </edge>
    <edge id=":1685007137_3" function="internal">
        <lane id=":1685007137_3_0" index="0" disallow="tram rail_urban rail rail_electric rail_fast ship" speed="3.65" length="4.67" shape="388.77,543.44 389.42,542.16 390.17,541.67 391.01,541.97 391.95,543.07"/>
    </edge>
    <edge id=":1685007137_4" function="internal">
        <lane id=":1685007137_4_0" index="0" disallow="tram rail_urban rail rail_electric rail_fast ship" speed="6.52" length="9.07" shape="396.86,536.81 394.46,537.45 392.85,538.70 392.01,540.58 391.95,543.07"/>
    </edge>
    <edge id=":1685007137_5" function="internal">
        <lane id=":1685007137_5_0" index="0" disallow="tram rail_urban rail rail_electric rail_fast ship" speed="13.89" length="14.48" shape="396.86,536.81 382.49,538.59"/>
    </edge>
    <edge id=":1685007137_6" function="internal">
        <lane id=":1685007137_6_0" index="0" disallow="tram rail_urban rail rail_electric rail_fast ship" speed="7.90" length="5.99" shape="396.86,536.81 393.65,536.45 391.18,535.20"/>
    </edge>
    <edge id=":1685007137_7" function="internal">
        <lane id=":1685007137_7_0" index="0" disallow="tram rail_urban rail rail_electric rail_fast ship" speed="3.65" length="2.34" shape="396.86,536.81 395.57,536.16 395.08,535.41"/>
    </edge>
    <edge id=":1685007137_16" function="internal">
        <lane id=":1685007137_16_0" index="0" disallow="tram rail_urban rail rail_electric rail_fast ship" speed="7.90" length="7.33" shape="391.18,535.20 390.56,534.88 388.11,532.46 386.84,529.54"/>
    </edge>
    <edge id=":1685007137_17" function="internal">
        <lane id=":1685007137_17_0" index="0" disallow="tram rail_urban rail rail_electric rail_fast ship" speed="3.65" length="2.34" shape="395.08,535.41 395.38,534.57 396.48,533.64"/>
    </edge>
    <edge id=":1685007137_8" function="internal">
        <lane id=":1685007137_8_0" index="0" disallow="tram rail_urban rail rail_electric rail_fast ship" speed="6.59" length="8.98" shape="390.00,529.03 390.73,531.29 392.05,532.81 393.97,533.59 396.48,533.64"/>
    </edge>
    <edge id=":1685007137_9" function="internal">
        <lane id=":1685007137_9_0" index="0" disallow="tram rail_urban rail rail_electric rail_fast ship" speed="13.89" length="14.18" shape="390.00,529.03 391.95,543.07"/>
    </edge>
    <edge id=":1685007137_10" function="internal">
        <lane id=":1685007137_10_0" index="0" disallow="tram rail_urban rail rail_electric rail_fast ship" speed="7.86" length="13.96" shape="390.00,529.03 390.04,532.78 388.80,535.62 386.29,537.56 382.49,538.59"/>
    </edge>
    <edge id=":1685007137_11" function="internal">
        <lane id=":1685007137_11_0" index="0" disallow="tram rail_urban rail rail_electric rail_fast ship" speed="3.65" length="4.67" shape="390.00,529.03 389.40,530.34 388.68,530.86 387.82,530.60 386.84,529.54"/>
    </edge>
    <edge id=":1685007137_12" function="internal">
        <lane id=":1685007137_12_0" index="0" disallow="tram rail_urban rail rail_electric rail_fast ship" speed="6.33" length="8.69" shape="382.07,535.42 384.47,534.78 386.07,533.58 386.86,531.84 386.84,529.54"/>
    </edge>
    <edge id=":1685007137_13" function="internal">
        <lane id=":1685007137_13_0" index="0" disallow="tram rail_urban rail rail_electric rail_fast ship" speed="13.89" length="14.52" shape="382.07,535.42 396.48,533.64"/>
    </edge>
    <edge id=":1685007137_14" function="internal">
        <lane id=":1685007137_14_0" index="0" disallow="tram rail_urban rail rail_electric rail_fast ship" speed="7.99" length="6.04" shape="382.07,535.42 386.01,535.46 387.94,536.31"/>
    </edge>
    <edge id=":1685007137_15" function="internal">
        <lane id=":1685007137_15_0" index="0" disallow="tram rail_urban rail rail_electric rail_fast ship" speed="3.65" length="2.34" shape="382.07,535.42 383.37,536.06 383.87,536.80"/>
    </edge>
    <edge id=":1685007137_18" function="internal">
        <lane id=":1685007137_18_0" index="0" disallow="tram rail_urban rail rail_electric rail_fast ship" speed="7.99" length="8.25" shape="387.94,536.31 388.97,536.75 390.95,539.29 391.95,543.07"/>
    </edge>
    <edge id=":1685007137_19" function="internal">
        <lane id=":1685007137_19_0" index="0" disallow="tram rail_urban rail rail_electric rail_fast ship" speed="3.65" length="2.34" shape="383.87,536.80 383.57,537.64 382.49,538.59"/>
    </edge>
    <edge id=":1685007205_0" function="internal">
        <lane id=":1685007205_0_0" index="0" disallow="tram rail_urban rail rail_electric rail_fast ship" speed="6.63" length="9.18" shape="522.76,532.81 522.18,530.33 520.97,528.61 519.13,527.65 516.68,527.45"/>
    </edge>
    <edge id=":1685007205_1" function="internal">
        <lane id=":1685007205_1_0" index="0" disallow="tram rail_urban rail rail_electric rail_fast ship" speed="7.95" length="14.30" shape="522.76,532.81 522.95,528.88 524.35,525.99 526.98,524.13 530.83,523.31"/>
    </edge>
    <edge id=":1685007205_2" function="internal">
        <lane id=":1685007205_2_0" index="0" disallow="tram rail_urban rail rail_electric rail_fast ship" speed="3.65" length="4.67" shape="522.76,532.81 523.44,531.54 524.20,531.06 525.04,531.39 525.95,532.50"/>
    </edge>
    <edge id=":1685007205_3" function="internal">
        <lane id=":1685007205_3_0" index="0" disallow="tram rail_urban rail rail_electric rail_fast ship" speed="6.45" length="9.03" shape="531.04,526.50 528.61,527.02 526.95,528.19 526.06,530.02 525.95,532.50"/>
    </edge>
    <edge id=":1685007205_4" function="internal">
        <lane id=":1685007205_4_0" index="0" disallow="tram rail_urban rail rail_electric rail_fast ship" speed="13.89" length="14.40" shape="531.04,526.50 516.68,527.45"/>
    </edge>
    <edge id=":1685007205_5" function="internal">
        <lane id=":1685007205_5_0" index="0" disallow="tram rail_urban rail rail_electric rail_fast ship" speed="3.65" length="2.34" shape="531.04,526.50 529.79,525.79 529.34,525.01"/>
    </edge>
    <edge id=":1685007205_9" function="internal">
        <lane id=":1685007205_9_0" index="0" disallow="tram rail_urban rail rail_electric rail_fast ship" speed="3.65" length="2.34" shape="529.34,525.01 529.68,524.19 530.83,523.31"/>
    </edge>
    <edge id=":1685007205_6" function="internal">
        <lane id=":1685007205_6_0" index="0" disallow="tram rail_urban rail rail_electric rail_fast ship" speed="13.89" length="14.39" shape="516.47,524.26 530.83,523.31"/>
    </edge>
    <edge id=":1685007205_7" function="internal">
        <lane id=":1685007205_7_0" index="0" disallow="tram rail_urban rail rail_electric rail_fast ship" speed="8.10" length="5.86" shape="516.47,524.26 520.30,524.57 522.09,525.49"/>
    </edge>
    <edge id=":1685007205_8" function="internal">
        <lane id=":1685007205_8_0" index="0" disallow="tram rail_urban rail rail_electric rail_fast ship" speed="3.65" length="2.34" shape="516.47,524.26 517.72,524.98 518.17,525.75"/>
    </edge>
    <edge id=":1685007205_10" function="internal">
        <lane id=":1685007205_10_0" index="0" disallow="tram rail_urban rail rail_electric rail_fast ship" speed="8.10" length="8.37" shape="522.09,525.49 523.16,526.04 525.04,528.69 525.95,532.50"/>
    </edge>
    <edge id=":1685007205_11" function="internal">
        <lane id=":1685007205_11_0" index="0" disallow="tram rail_urban rail rail_electric rail_fast ship" speed="3.65" length="2.34" shape="518.17,525.75 517.82,526.58 516.68,527.45"/>
    </edge>
    <edge id=":1685007228_0" function="internal">
        <lane id=":1685007228_0_0" index="0" disallow="tram rail_urban rail rail_electric rail_fast ship" speed="13.89" length="10.34" shape="384.45,524.27 374.20,525.63"/>
    </edge>
    <edge id=":1685007228_1" function="internal">
        <lane id=":1685007228_1_0" index="0" disallow="tram rail_urban rail rail_electric rail_fast ship" speed="7.06" length="3.59" shape="384.45,524.27 382.35,524.06 381.23,523.09"/>
    </edge>
    <edge id=":1685007228_2" function="internal">
        <lane id=":1685007228_2_0" index="0" disallow="tram rail_urban rail rail_electric rail_fast ship" speed="3.65" length="2.45" shape="384.45,524.27 383.11,523.72 382.56,523.02 382.59,522.91"/>
    </edge>
    <edge id=":1685007228_9" function="internal">
        <lane id=":1685007228_9_0" index="0" disallow="tram rail_urban rail rail_electric rail_fast ship" speed="7.06" length="7.55" shape="381.23,523.09 380.69,522.63 379.47,519.99 378.67,516.14"/>
    </edge>
    <edge id=":1685007228_10" function="internal">
        <lane id=":1685007228_10_0" index="0" disallow="tram rail_urban rail rail_electric rail_fast ship" speed="3.65" length="2.22" shape="382.59,522.91 382.80,522.15 383.82,521.13"/>
    </edge>
    <edge id=":1685007228_3" function="internal">
        <lane id=":1685007228_3_0" index="0" disallow="tram rail_urban rail rail_electric rail_fast ship" speed="5.38" length="6.02" shape="381.85,515.73 382.24,518.17 382.70,519.89 383.23,520.87 383.82,521.13"/>
    </edge>
    <edge id=":1685007228_4" function="internal">
        <lane id=":1685007228_4_0" index="0" disallow="tram rail_urban rail rail_electric rail_fast ship" speed="8.00" length="14.31" shape="381.85,515.73 381.80,519.67 380.51,522.64 377.97,524.62 374.20,525.63"/>
    </edge>
    <edge id=":1685007228_5" function="internal">
        <lane id=":1685007228_5_0" index="0" disallow="tram rail_urban rail rail_electric rail_fast ship" speed="3.65" length="4.67" shape="381.85,515.73 381.21,517.02 380.46,517.52 379.62,517.23 378.67,516.14"/>
    </edge>
    <edge id=":1685007228_6" function="internal">
        <lane id=":1685007228_6_0" index="0" disallow="tram rail_urban rail rail_electric rail_fast ship" speed="6.50" length="9.10" shape="373.82,522.45 376.22,521.81 377.83,520.55 378.64,518.65 378.67,516.14"/>
    </edge>
    <edge id=":1685007228_7" function="internal">
        <lane id=":1685007228_7_0" index="0" disallow="tram rail_urban rail rail_electric rail_fast ship" speed="13.89" length="10.08" shape="373.82,522.45 383.82,521.13"/>
    </edge>
    <edge id=":1685007228_8" function="internal">
        <lane id=":1685007228_8_0" index="0" disallow="tram rail_urban rail rail_electric rail_fast ship" speed="3.65" length="2.34" shape="373.82,522.45 375.11,523.11 375.60,523.85"/>
    </edge>
    <edge id=":1685007228_11" function="internal">
        <lane id=":1685007228_11_0" index="0" disallow="tram rail_urban rail rail_electric rail_fast ship" speed="3.65" length="2.34" shape="375.60,523.85 375.29,524.70 374.20,525.63"/>
    </edge>
    <edge id=":1685007246_0" function="internal">
        <lane id=":1685007246_0_0" index="0" disallow="tram rail_urban rail rail_electric rail_fast ship" speed="13.89" length="11.25" shape="288.21,524.89 286.41,513.79"/>
    </edge>
    <edge id=":1685007246_1" function="internal">
        <lane id=":1685007246_1_0" index="0" disallow="tram rail_urban rail rail_electric rail_fast ship" speed="3.65" length="2.34" shape="288.21,524.89 288.82,523.59 289.55,523.07"/>
    </edge>
    <edge id=":1685007246_6" function="internal">
        <lane id=":1685007246_6_0" index="0" disallow="tram rail_urban rail rail_electric rail_fast ship" speed="3.65" length="2.34" shape="289.55,523.07 290.40,523.34 291.38,524.41"/>
    </edge>
    <edge id=":1685007246_2" function="internal">
        <lane id=":1685007246_2_0" index="0" disallow="tram rail_urban rail rail_electric rail_fast ship" speed="13.89" length="11.31" shape="289.57,513.25 291.38,524.41"/>
    </edge>
    <edge id=":1685007246_3" function="internal">
        <lane id=":1685007246_3_0" index="0" disallow="tram rail_urban rail rail_electric rail_fast ship" speed="3.65" length="2.34" shape="289.57,513.25 288.98,514.57 288.26,515.10"/>
    </edge>
    <edge id=":1685007246_7" function="internal">
        <lane id=":1685007246_7_0" index="0" disallow="tram rail_urban rail rail_electric rail_fast ship" speed="3.65" length="2.34" shape="288.26,515.10 287.40,514.84 286.41,513.79"/>
    </edge>
    <edge id=":1685007246_4" function="internal">
        <lane id=":1685007246_4_0" index="0" disallow="tram rail_urban rail rail_electric rail_fast ship" speed="6.25" length="9.05" shape="281.58,519.77 284.06,519.30 285.69,518.15 286.48,516.31 286.41,513.79"/>
    </edge>
    <edge id=":1685007246_5" function="internal">