<?xml version="1.0" encoding="UTF-8"?>
<!-- generated on 2020-06-06 22:11:57.533029 by randomTrips.py UNKNOWN
  options: -n map.net.xml -e 98 -l <doubleminus>trip-attributes=departLane="best" departSpeed="max" departPos="random_free" -o trip.trips.xml
-->
<routes xmlns:xsi="http://www.w3.org/2001/XMLSchema-instance" xsi:noNamespaceSchemaLocation="http://sumo.dlr.de/xsd/routes_file.xsd">
    <trip id="0" depart="0.00" from="687425623#3" to="-156235942#0" departLane="best" departSpeed="max" departPos="random_free"/>
    <trip id="1" depart="1.00" from="-156236634#4" to="156237037#3" departLane="best" departSpeed="max" departPos="random_free"/>
    <trip id="2" depart="2.00" from="475190702#0" to="156236332" departLane="best" departSpeed="max" departPos="random_free"/>
    <trip id="3" depart="3.00" from="475190702#0" to="-156236288" departLane="best" departSpeed="max" departPos="random_free"/>
    <trip id="4" depart="4.00" from="-156236332" to="653737377#1" departLane="best" departSpeed="max" departPos="random_free"/>
    <trip id="5" depart="5.00" from="156236570" to="156236802#1" departLane="best" departSpeed="max" departPos="random_free"/>
    <trip id="6" depart="6.00" from="-156236845" to="-319633174" departLane="best" departSpeed="max" departPos="random_free"/>
    <trip id="7" depart="7.00" from="319492676" to="156235667#1" departLane="best" departSpeed="max" departPos="random_free"/>
    <trip id="8" depart="8.00" from="-156236332" to="-156236634#0" departLane="best" departSpeed="max" departPos="random_free"/>
    <trip id="9" depart="9.00" from="24884606#3" to="24884606#4" departLane="best" departSpeed="max" departPos="random_free"/>
    <trip id="10" depart="10.00" from="-319492673#0" to="475190703#0" departLane="best" departSpeed="max" departPos="random_free"/>
    <trip id="11" depart="11.00" from="24884606#0" to="-319492689" departLane="best" departSpeed="max" departPos="random_free"/>
    <trip id="12" depart="12.00" from="726057965" to="156236802#0" departLane="best" departSpeed="max" departPos="random_free"/>
    <trip id="13" depart="13.00" from="-156236776#1" to="-156235942#1" departLane="best" departSpeed="max" departPos="random_free"/>
    <trip id="14" depart="14.00" from="-319492687" to="319492699" departLane="best" departSpeed="max" departPos="random_free"/>
    <trip id="15" depart="15.00" from="156236273#1" to="156236776#3" departLane="best" departSpeed="max" departPos="random_free"/>
    <trip id="16" depart="16.00" from="24884606#0" to="475190702#0" departLane="best" departSpeed="max" departPos="random_free"/>
    <trip id="17" depart="17.00" from="-319492687" to="319492682" departLane="best" departSpeed="max" departPos="random_free"/>
    <trip id="18" depart="18.00" from="-156236776#5" to="319492684" departLane="best" departSpeed="max" departPos="random_free"/>
    <trip id="19" depart="19.00" from="156236304#3" to="-156236551#3" departLane="best" departSpeed="max" departPos="random_free"/>
    <trip id="20" depart="20.00" from="156236304#1" to="-156236845" departLane="best" departSpeed="max" departPos="random_free"/>
    <trip id="21" depart="21.00" from="755367130" to="319492698#0" departLane="best" departSpeed="max" departPos="random_free"/>
    <trip id="22" depart="22.00" from="-156236776#1" to="-319645334#1" departLane="best" departSpeed="max" departPos="random_free"/>
    <trip id="23" depart="23.00" from="-156236298" to="156235977" departLane="best" departSpeed="max" departPos="random_free"/>
    <trip id="24" depart="24.00" from="156236570" to="687425623#1" departLane="best" departSpeed="max" departPos="random_free"/>
    <trip id="25" depart="25.00" from="319633174" to="156236776#5" departLane="best" departSpeed="max" departPos="random_free"/>
    <trip id="26" depart="26.00" from="-319492694" to="-319633179" departLane="best" departSpeed="max" departPos="random_free"/>
    <trip id="27" depart="27.00" from="-319645334#1" to="319633179" departLane="best" departSpeed="max" departPos="random_free"/>
    <trip id="28" depart="28.00" from="319492682" to="-653737377#1" departLane="best" departSpeed="max" departPos="random_free"/>
    <trip id="29" depart="29.00" from="319492692#3" to="156236634#1" departLane="best" departSpeed="max" departPos="random_free"/>
    <trip id="30" depart="30.00" from="448478732#5" to="-156236288" departLane="best" departSpeed="max" departPos="random_free"/>
    <trip id="31" depart="31.00" from="156236220#1" to="24884606#3" departLane="best" departSpeed="max" departPos="random_free"/>
    <trip id="32" depart="32.00" from="-156235942#3" to="-319492692#0" departLane="best" departSpeed="max" departPos="random_free"/>
    <trip id="33" depart="33.00" from="156236866#1" to="475190702#0" departLane="best" departSpeed="max" departPos="random_free"/>
    <trip id="34" depart="34.00" from="-156236845" to="687425623#2" departLane="best" departSpeed="max" departPos="random_free"/>
    <trip id="35" depart="35.00" from="156235667#4" to="319492682" departLane="best" departSpeed="max" departPos="random_free"/>
    <trip id="36" depart="36.00" from="319492699" to="448478732#7" departLane="best" departSpeed="max" departPos="random_free"/>
    <trip id="37" depart="37.00" from="156235667#4" to="475190702#0" departLane="best" departSpeed="max" departPos="random_free"/>
    <trip id="38" depart="38.00" from="-653737377#0" to="687425623#3" departLane="best" departSpeed="max" departPos="random_free"/>
    <trip id="39" depart="39.00" from="-687601992" to="70372816#4" departLane="best" departSpeed="max" departPos="random_free"/>
    <trip id="40" depart="40.00" from="-653737377#1" to="24884606#4" departLane="best" departSpeed="max" departPos="random_free"/>
    <trip id="41" depart="41.00" from="-653737377#0" to="-156235942#1" departLane="best" departSpeed="max" departPos="random_free"/>
    <trip id="42" depart="42.00" from="687425623#1" to="156236776#0" departLane="best" departSpeed="max" departPos="random_free"/>
    <trip id="43" depart="43.00" from="156236250#4" to="653737377#1" departLane="best" departSpeed="max" departPos="random_free"/>
    <trip id="44" depart="44.00" from="319492689" to="-319492669" departLane="best" departSpeed="max" departPos="random_free"/>
    <trip id="45" depart="45.00" from="-156236273#0" to="156236288" departLane="best" departSpeed="max" departPos="random_free"/>
    <trip id="46" depart="46.00" from="-319492701#0" to="156236258" departLane="best" departSpeed="max" departPos="random_free"/>
    <trip id="47" depart="47.00" from="-156236845" to="319492699" departLane="best" departSpeed="max" departPos="random_free"/>
    <trip id="48" depart="48.00" from="448478732#8" to="24884606#3" departLane="best" departSpeed="max" departPos="random_free"/>
    <trip id="49" depart="49.00" from="156236250#4" to="70372816#4" departLane="best" departSpeed="max" departPos="random_free"/>
    <trip id="50" depart="50.00" from="156236551#0" to="-319645334#0" departLane="best" departSpeed="max" departPos="random_free"/>
    <trip id="51" depart="51.00" from="-156236570" to="24884606#3" departLane="best" departSpeed="max" departPos="random_free"/>
    <trip id="52" depart="52.00" from="448478732#7" to="687601998" departLane="best" departSpeed="max" departPos="random_free"/>
    <trip id="53" depart="53.00" from="687425623#3" to="70372816#4" departLane="best" departSpeed="max" departPos="random_free"/>
    <trip id="54" depart="54.00" from="156236776#7" to="-319492701#4" departLane="best" departSpeed="max" departPos="random_free"/>
    <trip id="55" depart="55.00" from="156236250#0" to="156235667#2" departLane="best" departSpeed="max" departPos="random_free"/>
    <trip id="56" depart="56.00" from="156236570" to="-156236288" departLane="best" departSpeed="max" departPos="random_free"/>
    <trip id="57" depart="57.00" from="156236634#7" to="156236634#10" departLane="best" departSpeed="max" departPos="random_free"/>
    <trip id="58" depart="58.00" from="687601999" to="156236298" departLane="best" departSpeed="max" departPos="random_free"/>
    <trip id="59" depart="59.00" from="-319463662" to="475190702#2" departLane="best" departSpeed="max" departPos="random_free"/>
    <trip id="60" depart="60.00" from="458026581" to="475190703#0" departLane="best" departSpeed="max" departPos="random_free"/>
    <trip id="61" depart="61.00" from="-156236551#3" to="319492667" departLane="best" departSpeed="max" departPos="random_free"/>
    <trip id="62" depart="62.00" from="156236802#1" to="156236802#0" departLane="best" departSpeed="max" departPos="random_free"/>
    <trip id="63" depart="63.00" from="-156236288" to="156236776#4" departLane="best" departSpeed="max" departPos="random_free"/>
    <trip id="64" depart="64.00" from="-156236574" to="156235802" departLane="best" departSpeed="max" departPos="random_free"/>
    <trip id="65" depart="65.00" from="319645334#1" to="-475190696#1" departLane="best" departSpeed="max" departPos="random_free"/>
    <trip id="66" depart="66.00" from="-319492687" to="-726057965" departLane="best" departSpeed="max" departPos="random_free"/>
    <trip id="67" depart="67.00" from="319492699" to="-319492676" departLane="best" departSpeed="max" departPos="random_free"/>
    <trip id="68" depart="68.00" from="-319492699" to="-319492692#1" departLane="best" departSpeed="max" departPos="random_free"/>
    <trip id="69" depart="69.00" from="449625225" to="-726057965" departLane="best" departSpeed="max" departPos="random_free"/>
    <trip id="70" depart="70.00" from="319492694" to="319492689" departLane="best" departSpeed="max" departPos="random_free"/>
    <trip id="71" depart="71.00" from="-156236304#0" to="-156236298" departLane="best" departSpeed="max" departPos="random_free"/>
    <trip id="72" depart="72.00" from="156236288" to="726057965" departLane="best" departSpeed="max" departPos="random_free"/>
    <trip id="73" depart="73.00" from="319492689" to="319645334#0" departLane="best" departSpeed="max" departPos="random_free"/>
    <trip id="74" depart="74.00" from="24884606#1" to="24884606#3" departLane="best" departSpeed="max" departPos="random_free"/>
    <trip id="75" depart="75.00" from="583842691" to="156236551#3" departLane="best" departSpeed="max" departPos="random_free"/>
    <trip id="76" depart="76.00" from="-319492669" to="-156236288" departLane="best" departSpeed="max" departPos="random_free"/>
    <trip id="77" depart="77.00" from="448478732#4" to="319492670" departLane="best" departSpeed="max" departPos="random_free"/>
    <trip id="78" depart="78.00" from="653737377#1" to="475190702#0" departLane="best" departSpeed="max" departPos="random_free"/>
    <trip id="79" depart="79.00" from="-156236288" to="156236298" departLane="best" departSpeed="max" departPos="random_free"/>
    <trip id="80" depart="80.00" from="156236776#2" to="319645334#0" departLane="best" departSpeed="max" departPos="random_free"/>
    <trip id="81" depart="81.00" from="-156237037#3" to="24884606#4" departLane="best" departSpeed="max" departPos="random_free"/>
    <trip id="82" depart="82.00" from="319633171" to="319492676" departLane="best" departSpeed="max" departPos="random_free"/>
    <trip id="83" depart="83.00" from="-156236845" to="156237037#0" departLane="best" departSpeed="max" departPos="random_free"/>
    <trip id="84" depart="84.00" from="319492682" to="156237037#3" departLane="best" departSpeed="max" departPos="random_free"/>
    <trip id="85" depart="85.00" from="319492682" to="319492670" departLane="best" departSpeed="max" departPos="random_free"/>
    <trip id="86" depart="86.00" from="-156236250#4" to="156236220#0" departLane="best" departSpeed="max" departPos="random_free"/>
    <trip id="87" depart="87.00" from="319645334#0" to="156236634#9" departLane="best" departSpeed="max" departPos="random_free"/>
    <trip id="88" depart="88.00" from="-156235667#4" to="156236298" departLane="best" departSpeed="max" departPos="random_free"/>
    <trip id="89" depart="89.00" from="156236980" to="475190702#2" departLane="best" departSpeed="max" departPos="random_free"/>
    <trip id="90" depart="90.00" from="448478732#3" to="156235802" departLane="best" departSpeed="max" departPos="random_free"/>
    <trip id="91" depart="91.00" from="156236776#7" to="-583863704" departLane="best" departSpeed="max" departPos="random_free"/>
    <trip id="92" depart="92.00" from="653737377#1" to="-687601999" departLane="best" departSpeed="max" departPos="random_free"/>
    <trip id="93" depart="93.00" from="-156236258" to="-687601992" departLane="best" departSpeed="max" departPos="random_free"/>
    <trip id="94" depart="94.00" from="156236288" to="156236980" departLane="best" departSpeed="max" departPos="random_free"/>
    <trip id="95" depart="95.00" from="-156236574" to="475190702#0" departLane="best" departSpeed="max" departPos="random_free"/>
    <trip id="96" depart="96.00" from="-653737377#2" to="156236250#1" departLane="best" departSpeed="max" departPos="random_free"/>
    <trip id="97" depart="97.00" from="653737377#1" to="-156235977" departLane="best" departSpeed="max" departPos="random_free"/>
</routes>
